AquaCrop 6.0 (March 2017) - Output created on (date) : 3/5/2021   at (time) : 3:52:32 PM

    RunNr     Day1   Month1    Year1     Rain      ETo       GD     CO2      Irri   Infilt   Runoff    Drain   Upflow        E     E/Ex       Tr      TrW   Tr/Trx    SaltIn   SaltOut    SaltUp  SaltProf     Cycle   SaltStr  FertStr  WeedStr  TempStr   ExpStr   StoStr  BioMass  Brelative   HI     Yield     WPet     DayN   MonthN    YearN
                                           mm       mm    °C.day    ppm        mm       mm       mm       mm       mm       mm        %       mm       mm        %    ton/ha    ton/ha    ton/ha    ton/ha      days       %        %        %        %        %        %    ton/ha        %       %    ton/ha    kg/m3
   Tot(1)       31       10     1990    193.9    490.9   1735.7   355.00    293.3    186.2      7.7     14.6      0.0    225.3       93    278.9    275.2      100     0.000     0.000     0.000     0.000      100        0        0        0        0        0        0     8.170      100     25.0    2.042     0.41       13        2     1991  Parnassus_GroundnutGDDCRO_ClayLoam_S2_riegoIRR.PRM
   Tot(2)       31       10     1991    102.3    497.0   1733.8   356.03    354.9     92.8      9.5      6.3      0.0    214.0       81    266.6    266.4      100     0.000     0.000     0.000     0.000      100        0        0        0        0        0        0     8.238      100     25.0    2.059     0.43       13        2     1992  Parnassus_GroundnutGDDCRO_ClayLoam_S2_riegoIRR.PRM
   Tot(3)       31       10     1992    103.8    516.7   1723.7   356.27    364.1     97.9      5.9      0.0      0.0    227.6       82    273.7    273.7      100     0.000     0.000     0.000     0.000       98        0        0        0        0        0        0     8.057      100     25.0    2.014     0.40       11        2     1993  Parnassus_GroundnutGDDCRO_ClayLoam_S2_riegoIRR.PRM
   Tot(4)       31       10     1993    168.5    503.2   1730.5   357.47    309.3    146.1     22.4      8.5      0.0    217.2       81    268.2    267.7      100     0.000     0.000     0.000     0.000       99        0        0        0        0        0        0     8.157      100     25.0    2.039     0.42       12        2     1994  Parnassus_GroundnutGDDCRO_ClayLoam_S2_riegoIRR.PRM
   Tot(5)       31       10     1994    161.9    499.9   1728.9   359.82    334.3    142.5     19.4     18.4      0.0    223.4       87    274.0    274.3      100     0.000     0.000     0.000     0.000       99        0        0        0        0        0        0     8.211      100     25.0    2.053     0.41       12        2     1995  Parnassus_GroundnutGDDCRO_ClayLoam_S2_riegoIRR.PRM
   Tot(6)       31       10     1995    106.4    510.0   1726.9   361.72    359.0    106.2      0.2      0.0      0.0    226.8       86    277.7    277.9      100     0.000     0.000     0.000     0.000       98        0        0        0        0        0        0     8.163      100     25.0    2.041     0.40       11        2     1996  Parnassus_GroundnutGDDCRO_ClayLoam_S2_riegoIRR.PRM
   Tot(7)       31       10     1996    190.5    515.1   1749.4   363.17    337.2    164.9     25.6     39.0      0.0    222.8       85    282.6    286.5      100     0.000     0.000     0.000     0.000      101        0        0        0        0        0        0     8.444      100     25.0    2.111     0.42       15        2     1997  Parnassus_GroundnutGDDCRO_ClayLoam_S2_riegoIRR.PRM
   Tot(8)       31       10     1997    151.6    485.5   1716.1   365.22    305.3    143.6      8.0      0.0      0.0    229.1       89    259.1    255.2      100     0.000     0.000     0.000     0.000       97        0        0        0        0        0        0     8.151      100     25.0    2.038     0.42       10        2     1998  Parnassus_GroundnutGDDCRO_ClayLoam_S2_riegoIRR.PRM
   Tot(9)       31       10     1998    275.0    485.8   1745.3   367.54    255.8    215.2     59.8     24.3      0.0    228.3       89    259.8    263.7      100     0.000     0.000     0.000     0.000       99        0        0        0        0        0        0     8.405      100     25.0    2.101     0.43       13        2     1999  Parnassus_GroundnutGDDCRO_ClayLoam_S2_riegoIRR.PRM
  Tot(10)       31       10     1999    189.8    504.5   1738.6   368.97    324.0    168.8     21.0     37.4      0.0    222.3       86    275.4    275.4      100     0.000     0.000     0.000     0.000      105        0        0        0        0        0        0     8.928      100     25.0    2.232     0.45       19        2     2000  Parnassus_GroundnutGDDCRO_ClayLoam_S2_riegoIRR.PRM
  Tot(11)       31       10     2000    323.5    476.7   1732.7   370.35    230.1    254.6     68.9     53.8      0.0    220.1       86    250.0    246.2      100     0.000     0.000     0.000     0.000      102        0        0        0        0        0        0     8.726      100     25.0    2.182     0.46       15        2     2001  Parnassus_GroundnutGDDCRO_ClayLoam_S2_riegoIRR.PRM
  Tot(12)       31       10     2001    317.4    466.0   1737.2   372.21    232.9    251.8     65.6     60.1      0.0    213.7       87    250.2    250.3      100     0.000     0.000     0.000     0.000      100        0        0        0        0        0        0     8.477      100     25.0    2.119     0.46       13        2     2002  Parnassus_GroundnutGDDCRO_ClayLoam_S2_riegoIRR.PRM
  Tot(13)       31       10     2002    186.4    476.6   1720.3   374.54    269.6    164.5     21.9      0.0      0.0    221.0       87    252.5    252.4      100     0.000     0.000     0.000     0.000       97        0        0        0        0        0        0     8.325      100     25.0    2.081     0.44       10        2     2003  Parnassus_GroundnutGDDCRO_ClayLoam_S2_riegoIRR.PRM
  Tot(14)       31       10     2003    224.4    504.3   1718.7   376.66    281.6    201.2     23.2     14.4      0.0    236.4       89    270.7    270.3      100     0.000     0.000     0.000     0.000       98        0        0        0        0        0        0     8.499      100     25.0    2.125     0.42       11        2     2004  Parnassus_GroundnutGDDCRO_ClayLoam_S2_riegoIRR.PRM
  Tot(15)       31       10     2004    125.6    545.9   1726.8   378.66    377.1    123.4      2.2      0.0      0.0    256.8       86    283.0    283.5      100     0.000     0.000     0.000     0.000      101        0        0        0        0        0        0     8.832      100     25.0    2.208     0.41       14        2     2005  Parnassus_GroundnutGDDCRO_ClayLoam_S2_riegoIRR.PRM
  Tot(16)       31       10     2005    231.6    469.8   1739.5   380.85    226.0    211.9     19.7      0.0      0.0    228.1       90    245.9    249.6      100     0.000     0.000     0.000     0.000      100        0        0        0        0        0        0     8.756      100     25.0    2.189     0.46       14        2     2006  Parnassus_GroundnutGDDCRO_ClayLoam_S2_riegoIRR.PRM
  Tot(17)       31       10     2006    158.9    493.9   1710.2   382.85    321.7    140.7     18.2      9.9      0.0    220.9       86    269.4    265.8      100     0.000     0.000     0.000     0.000       96        0        0        0        0        0        0     8.244      100     25.0    2.061     0.42        8        2     2007  Parnassus_GroundnutGDDCRO_ClayLoam_S2_riegoIRR.PRM
  Tot(18)       31       10     2007    296.3    482.9   1746.1   384.70    300.2    203.2     93.1     67.9      0.0    217.4       87    260.5    264.0      100     0.000     0.000     0.000     0.000      100        0        0        0        0        0        0     8.791      100     25.0    2.198     0.46       14        2     2008  Parnassus_GroundnutGDDCRO_ClayLoam_S2_riegoIRR.PRM
  Tot(19)       31       10     2008    174.1    487.5   1735.1   386.51    337.8    147.1     27.0     40.1      0.0    214.3       87    270.0    266.4      100     0.000     0.000     0.000     0.000      101        0        0        0        0        0        0     8.908      100     25.0    2.227     0.46       14        2     2009  Parnassus_GroundnutGDDCRO_ClayLoam_S2_riegoIRR.PRM
  Tot(20)       31       10     2009    163.6    475.3   1707.3   388.66    317.9    120.4     43.2     12.4      0.0    218.1       84    247.6    247.9      100     0.000     0.000     0.000     0.000       97        0        0        0        0        0        0     8.580      100     25.0    2.145     0.46       10        2     2010  Parnassus_GroundnutGDDCRO_ClayLoam_S2_riegoIRR.PRM
  Tot(21)       31       10     2010    158.5    486.7   1747.6   390.77    304.0    141.3     17.2      5.2      0.0    225.8       87    256.2    259.6      100     0.000     0.000     0.000     0.000      104        0        0        0        0        0        0     9.241      100     25.0    2.310     0.48       18        2     2011  Parnassus_GroundnutGDDCRO_ClayLoam_S2_riegoIRR.PRM
  Tot(22)       31       10     2011     66.4    501.5   1721.4   392.75    389.3     66.2      0.2      0.0      0.0    231.1       86    264.5    261.3      100     0.000     0.000     0.000     0.000       98        0        0        0        0        0        0     8.737      100     25.0    2.184     0.44       11        2     2012  Parnassus_GroundnutGDDCRO_ClayLoam_S2_riegoIRR.PRM
  Tot(23)       31       10     2012     90.4    489.3   1724.0   395.19    369.9     85.0      5.4      0.6      0.0    230.5       90    263.2    262.6      100     0.000     0.000     0.000     0.000       98        0        0        0        0        0        0     8.719      100     25.0    2.180     0.44       11        2     2013  Parnassus_GroundnutGDDCRO_ClayLoam_S2_riegoIRR.PRM
  Tot(24)       31       10     2013    122.3    477.4   1719.0   397.58    324.1    119.1      3.2      2.0      0.0    226.2       90    254.6    254.7      100     0.000     0.000     0.000     0.000       96        0        0        0        0        0        0     8.623      100     25.0    2.156     0.45        9        2     2014  Parnassus_GroundnutGDDCRO_ClayLoam_S2_riegoIRR.PRM
  Tot(25)       31       10     2014    160.9    467.7   1719.9   399.74    279.2    151.5      9.4      0.0      0.0    224.1       90    246.9    247.6      100     0.000     0.000     0.000     0.000       97        0        0        0        0        0        0     8.771      100     25.0    2.193     0.47       10        2     2015  Parnassus_GroundnutGDDCRO_ClayLoam_S2_riegoIRR.PRM
  Tot(26)       31       10     2015    193.2    454.3   1719.8   402.52    231.1    189.7      3.5      2.1      0.0    216.7       90    242.1    241.9      100     0.000     0.000     0.000     0.000       96        0        0        0        0        0        0     8.728      100     25.0    2.182     0.48        9        2     2016  Parnassus_GroundnutGDDCRO_ClayLoam_S2_riegoIRR.PRM
  Tot(27)       31       10     2016    170.3    467.5   1715.0   405.21    277.4    158.1     12.2     10.4      0.0    210.7       87    253.6    253.0      100     0.000     0.000     0.000     0.000       97        0        0        0        0        0        0     8.852      100     25.0    2.213     0.48       10        2     2017  Parnassus_GroundnutGDDCRO_ClayLoam_S2_riegoIRR.PRM
  Tot(28)       31       10     2017    435.1    411.7   1735.3   407.21     76.3    376.5     58.6     78.6      0.0    192.8       90    221.2    221.7      100     0.000     0.000     0.000     0.000       99        0        0        0        0        0        0     9.123      100     25.0    2.281     0.55       12        2     2018  Parnassus_GroundnutGDDCRO_ClayLoam_S2_riegoIRR.PRM
  Tot(29)       31       10     2018     75.0    473.1   1716.0   409.21    351.4     73.1      1.9      0.0      0.0    216.4       85    248.6    249.0      100     0.000     0.000     0.000     0.000       97        0        0        0        0        0        0     8.921      100     25.0    2.230     0.48       10        2     2019  Parnassus_GroundnutGDDCRO_ClayLoam_S2_riegoIRR.PRM
