AquaCrop 6.0 (March 2017) - Output created on (date) : 3/5/2021   at (time) : 3:58:19 PM

    RunNr     Day1   Month1    Year1     Rain      ETo       GD     CO2      Irri   Infilt   Runoff    Drain   Upflow        E     E/Ex       Tr      TrW   Tr/Trx    SaltIn   SaltOut    SaltUp  SaltProf     Cycle   SaltStr  FertStr  WeedStr  TempStr   ExpStr   StoStr  BioMass  Brelative   HI     Yield     WPet     DayN   MonthN    YearN
                                           mm       mm    °C.day    ppm        mm       mm       mm       mm       mm       mm        %       mm       mm        %    ton/ha    ton/ha    ton/ha    ton/ha      days       %        %        %        %        %        %    ton/ha        %       %    ton/ha    kg/m3
   Tot(1)        1        5     1990    130.3    611.2   1303.9   354.39      0.0    130.1      0.2      0.0      0.0    108.0       44    244.2    244.2       60     0.000     0.000     0.000     0.000       94        0        0        0        0       60       30     8.043       54     43.2    3.477     0.99        9        8     1990  Parnassus_SweetPotatoGDDCRO_Clay_S1_rainfed.PRM
   Tot(2)        1        5     1991    123.7    589.6   1298.3   355.61      0.0    122.1      1.6      0.0      0.0    130.8       61    217.0    217.0       53     0.000     0.000     0.000     0.000       95        0        0        0        0       59       39     7.194       48     39.6    2.851     0.82       10        8     1991  Parnassus_SweetPotatoGDDCRO_Clay_S1_rainfed.PRM
   Tot(3)        1        5     1992    139.4    604.8   1302.7   356.45      0.0    139.1      0.3      0.0      0.0    118.5       54    240.6    240.6       57     0.000     0.000     0.000     0.000       95        0        0        0        0       57       33     8.022       54     40.6    3.259     0.91       10        8     1992  Parnassus_SweetPotatoGDDCRO_Clay_S1_rainfed.PRM
   Tot(4)        1        5     1993    281.3    572.3   1294.6   356.10      0.0    264.9     16.4     28.5      0.0    155.8       93    297.9    297.9       67     0.000     0.000     0.000     0.000       97        0        0        0        0        0       33    10.197       68     45.8    4.668     1.03       12        8     1993  Parnassus_SweetPotatoGDDCRO_Clay_S1_rainfed.PRM
   Tot(5)        1        5     1994    116.2    653.1   1306.7   358.83      0.0    116.2      0.0      0.5      0.0    138.7       50    197.7    197.7       48     0.000     0.000     0.000     0.000       93        0        0        0        0       64       42     5.851       39     37.1    2.173     0.65        8        8     1994  Parnassus_SweetPotatoGDDCRO_Clay_S1_rainfed.PRM
   Tot(6)        1        5     1995    176.3    597.5   1303.6   360.82      0.0    174.6      1.7      8.3      0.0    137.9       53    237.1    237.1       62     0.000     0.000     0.000     0.000       92        0        0        0        0       64       30     7.743       53     45.1    3.492     0.94        7        8     1995  Parnassus_SweetPotatoGDDCRO_Clay_S1_rainfed.PRM
   Tot(7)        1        5     1996    149.1    613.9   1300.0   362.61      0.0    149.0      0.1      0.5      0.0    142.6       55    223.5    223.5       57     0.000     0.000     0.000     0.000       94        0        0        0        0       64       34     7.111       48     43.1    3.068     0.84        9        8     1996  Parnassus_SweetPotatoGDDCRO_Clay_S1_rainfed.PRM
   Tot(8)        1        5     1997    243.7    605.0   1303.0   363.73      0.0    207.8     35.9     30.8      0.0     78.9       35    297.0    297.0       70     0.000     0.000     0.000     0.000       95        0        0        0        0        7       25    10.233       66     51.2    5.243     1.40       10        8     1997  Parnassus_SweetPotatoGDDCRO_Clay_S1_rainfed.PRM
   Tot(9)        1        5     1998    172.5    596.3   1298.0   366.70      0.0    168.3      4.2      0.0      0.0    103.3       43    278.7    278.7       70     0.000     0.000     0.000     0.000       89        0        0        0        0       52       23     9.041       63     48.4    4.375     1.15        4        8     1998  Parnassus_SweetPotatoGDDCRO_Clay_S1_rainfed.PRM
  Tot(10)        1        5     1999    251.3    595.5   1297.7   368.38      0.0    250.7      0.6      0.0      0.0    121.7       61    344.4    344.4       78     0.000     0.000     0.000     0.000       95        0        0        0        0       13       17    11.995       78     51.1    6.132     1.32       10        8     1999  Parnassus_SweetPotatoGDDCRO_Clay_S1_rainfed.PRM
  Tot(11)        1        5     2000    189.4    614.7   1296.4   369.55      0.0    189.1      0.3      0.0      0.0    101.1       45    299.1    299.1       69     0.000     0.000     0.000     0.000       95        0        0        0        0       52       23    10.215       66     46.5    4.752     1.19       10        8     2000  Parnassus_SweetPotatoGDDCRO_Clay_S1_rainfed.PRM
  Tot(12)        1        5     2001    205.3    606.9   1296.5   371.14      0.0    193.6     11.7     18.1      0.0    175.3       77    211.6    211.6       51     0.000     0.000     0.000     0.000       94        0        0        0        0       60       42     6.976       46     38.9    2.712     0.70        9        8     2001  Parnassus_SweetPotatoGDDCRO_Clay_S1_rainfed.PRM
  Tot(13)        1        5     2002    407.0    574.2   1303.4   373.28      0.0    304.3    102.7    168.7      0.0     97.7       50    228.0    228.0       54     0.000     0.000     0.000     0.000       97        0        0        0        0        4       45     7.985       50     47.2    3.767     1.16       12        8     2002  Parnassus_SweetPotatoGDDCRO_Clay_S1_rainfed.PRM
  Tot(14)        1        5     2003    278.2    603.3   1294.3   375.80      0.0    260.2     18.0     11.4      0.0    102.4       50    365.2    363.8       82     0.000     0.000     0.000     0.000       95        0        0        0        0        6       16    12.690       81     48.5    6.149     1.32        8        8     2003  Parnassus_SweetPotatoGDDCRO_Clay_S1_rainfed.PRM
  Tot(15)        1        5     2004    135.0    616.4   1301.3   377.52      0.0    134.8      0.2      0.6      0.0    129.5       51    219.4    220.9       55     0.000     0.000     0.000     0.000       93        0        0        0        0       62       35     7.431       48     41.6    3.092     0.89        8        8     2004  Parnassus_SweetPotatoGDDCRO_Clay_S1_rainfed.PRM
  Tot(16)        1        5     2005    756.7    526.9   1294.9   379.80      0.0    483.9    272.8    235.3      0.0    147.9       86    132.8    132.8       34     0.000     0.000     0.000     0.000       94        0        0        0        0        2       63     5.036       32     56.3    2.836     1.01        8        8     2005  Parnassus_SweetPotatoGDDCRO_Clay_S1_rainfed.PRM
  Tot(17)        1        5     2006    294.0    588.5   1304.5   381.90      0.0    271.3     22.7     27.9      0.0     93.3       45    262.7    262.7       62     0.000     0.000     0.000     0.000       93        0        0        0        0        5       29     9.464       60     56.5    5.344     1.51        8        8     2006  Parnassus_SweetPotatoGDDCRO_Clay_S1_rainfed.PRM
  Tot(18)        1        5     2007    278.6    569.3   1297.8   383.79      0.0    257.0     21.6     53.0      0.0    137.1       82    247.3    247.3       56     0.000     0.000     0.000     0.000       92        0        0        0        0        0       41     8.389       54     49.9    4.184     1.09        7        8     2007  Parnassus_SweetPotatoGDDCRO_Clay_S1_rainfed.PRM
  Tot(19)        1        5     2008    237.2    590.9   1306.3   385.60      0.0    202.1     35.1      0.1      0.0     87.1       42    332.4    332.4       78     0.000     0.000     0.000     0.000       94        0        0        0        0       11       16    12.246       76     50.1    6.135     1.47        9        8     2008  Parnassus_SweetPotatoGDDCRO_Clay_S1_rainfed.PRM
  Tot(20)        1        5     2009    257.1    577.8   1304.1   387.43      0.0    252.2      4.9     10.4      0.0    139.4       74    322.7    322.7       75     0.000     0.000     0.000     0.000       96        0        0        0        0        2       25    12.322       76     47.7    5.879     1.28       11        8     2009  Parnassus_SweetPotatoGDDCRO_Clay_S1_rainfed.PRM
  Tot(21)        1        5     2010    486.8    525.2   1303.3   389.90      0.0    397.1     89.7    172.8      0.0    109.5       61    106.7    106.7       28     0.000     0.000     0.000     0.000       93        0        0        0        0        2       59     4.261       27     53.8    2.292     1.07        7        8     2010  Parnassus_SweetPotatoGDDCRO_Clay_S1_rainfed.PRM
  Tot(22)        1        5     2011    465.1    553.8   1303.1   391.65      0.0    354.2    110.9    178.1      0.0     96.5       48     79.6     79.6       20     0.000     0.000     0.000     0.000       95        0        0        0        0        5       62     3.233       20     53.9    1.741     1.00       10        8     2011  Parnassus_SweetPotatoGDDCRO_Clay_S1_rainfed.PRM
  Tot(23)        1        5     2012    260.8    582.0   1304.4   393.85      0.0    246.6     14.2      3.9      0.0    104.7       51    318.1    318.1       76     0.000     0.000     0.000     0.000       93        0        0        0        0       26       18    11.736       73     50.9    5.969     1.42        8        8     2012  Parnassus_SweetPotatoGDDCRO_Clay_S1_rainfed.PRM
  Tot(24)        1        5     2013    206.0    570.9   1303.4   396.52      0.0    204.8      1.2      0.9      0.0    110.4       58    313.1    313.1       75     0.000     0.000     0.000     0.000       94        0        0        0        0       30       19    12.230       75     48.3    5.913     1.41        9        8     2013  Parnassus_SweetPotatoGDDCRO_Clay_S1_rainfed.PRM
  Tot(25)        1        5     2014    166.3    587.3   1307.3   398.65      0.0    164.8      1.5      0.0      0.0    145.0       67    241.2    241.2       60     0.000     0.000     0.000     0.000       94        0        0        0        0       59       32     9.123       56     43.0    3.921     1.02        9        8     2014  Parnassus_SweetPotatoGDDCRO_Clay_S1_rainfed.PRM
  Tot(26)        1        5     2015    170.5    579.1   1296.0   400.83      0.0    168.0      2.5      1.0      0.0     93.7       47    293.2    293.2       71     0.000     0.000     0.000     0.000       94        0        0        0        0       13       22    11.393       70     49.0    5.578     1.45        8        8     2015  Parnassus_SweetPotatoGDDCRO_Clay_S1_rainfed.PRM
  Tot(27)        1        5     2016    289.2    562.2   1302.7   404.21      0.0    281.0      8.2      1.3      0.0    115.0       63    349.5    349.5       83     0.000     0.000     0.000     0.000       92        0        0        0        0        2       14    13.349       83     51.9    6.932     1.50        6        8     2016  Parnassus_SweetPotatoGDDCRO_Clay_S1_rainfed.PRM
  Tot(28)        1        5     2017    400.3    537.4   1306.8   406.21      0.0    295.8    104.5     51.3      0.0    118.1       70    331.2    331.2       82     0.000     0.000     0.000     0.000       94        0        0        0        0       18       18    13.530       82     51.0    6.903     1.54        9        8     2017  Parnassus_SweetPotatoGDDCRO_Clay_S1_rainfed.PRM
  Tot(29)        1        5     2018    244.0    558.2   1306.7   408.21      0.0    230.2     13.8     23.8      0.0    140.9       82    285.4    285.4       68     0.000     0.000     0.000     0.000       96        0        0        0        0        7       28    11.599       69     46.4    5.382     1.27       11        8     2018  Parnassus_SweetPotatoGDDCRO_Clay_S1_rainfed.PRM
