AquaCrop 6.0 (March 2017) - Output created on (date) : 3/5/2021   at (time) : 4:04:20 PM

    RunNr     Day1   Month1    Year1     Rain      ETo       GD     CO2      Irri   Infilt   Runoff    Drain   Upflow        E     E/Ex       Tr      TrW   Tr/Trx    SaltIn   SaltOut    SaltUp  SaltProf     Cycle   SaltStr  FertStr  WeedStr  TempStr   ExpStr   StoStr  BioMass  Brelative   HI     Yield     WPet     DayN   MonthN    YearN
                                           mm       mm    °C.day    ppm        mm       mm       mm       mm       mm       mm        %       mm       mm        %    ton/ha    ton/ha    ton/ha    ton/ha      days       %        %        %        %        %        %    ton/ha        %       %    ton/ha    kg/m3
   Tot(1)        1        5     1990    130.3    611.2   1303.9   354.39    445.6    129.0      1.3     12.1      0.0    117.3       60    461.3    461.3      100     0.000     0.000     0.000     0.000       94        0        0        0        0        0        0    14.827      100     53.8    7.973     1.38        9        8     1990  Parnassus_SweetPotatoGDDCRO_Sand_S1_riegoIRR.PRM
   Tot(2)        1        5     1991    123.7    589.6   1298.3   355.61    453.3    121.0      2.7     22.4      0.0    115.3       64    453.3    453.3      100     0.000     0.000     0.000     0.000       95        0        0        0        0        0        0    14.909      100     53.8    8.021     1.42       10        8     1991  Parnassus_SweetPotatoGDDCRO_Sand_S1_riegoIRR.PRM
   Tot(3)        1        5     1992    139.4    604.8   1302.7   356.45    429.9    138.8      0.6      8.3      0.0    116.5       61    460.1    460.1      100     0.000     0.000     0.000     0.000       95        0        0        0        0        0        0    14.959      100     53.8    8.044     1.40       10        8     1992  Parnassus_SweetPotatoGDDCRO_Sand_S1_riegoIRR.PRM
   Tot(4)        1        5     1993    281.3    572.3   1294.6   356.10    368.5    274.1      7.2     63.8      0.0    145.9       88    448.7    448.7      100     0.000     0.000     0.000     0.000       97        0        0        0        0        0        0    15.135      100     53.8    8.147     1.38       12        8     1993  Parnassus_SweetPotatoGDDCRO_Sand_S1_riegoIRR.PRM
   Tot(5)        1        5     1994    116.2    653.1   1306.7   358.83    505.7    116.2      0.0      0.0      0.0    131.1       67    506.5    506.5      100     0.000     0.000     0.000     0.000       93        0        0        0        0        0        0    14.849      100     53.8    7.988     1.26        8        8     1994  Parnassus_SweetPotatoGDDCRO_Sand_S1_riegoIRR.PRM
   Tot(6)        1        5     1995    176.3    597.5   1303.6   360.82    403.0    176.2      0.1      6.3      0.0    128.0       68    454.2    454.2      100     0.000     0.000     0.000     0.000       92        0        0        0        0        0        0    14.747      100     53.8    7.935     1.37        7        8     1995  Parnassus_SweetPotatoGDDCRO_Sand_S1_riegoIRR.PRM
   Tot(7)        1        5     1996    149.1    613.9   1300.0   362.61    429.9    148.9      0.2      4.1      0.0    121.5       64    469.6    469.6      100     0.000     0.000     0.000     0.000       94        0        0        0        0        0        0    14.969      100     53.8    8.052     1.37        9        8     1996  Parnassus_SweetPotatoGDDCRO_Sand_S1_riegoIRR.PRM
   Tot(8)        1        5     1997    243.7    605.0   1303.0   363.73    396.8    223.5     20.2     75.7      0.0    116.5       56    443.1    443.1      100     0.000     0.000     0.000     0.000       95        0        0        0        0        0        0    15.480      100     53.8    8.333     1.50       10        8     1997  Parnassus_SweetPotatoGDDCRO_Sand_S1_riegoIRR.PRM
   Tot(9)        1        5     1998    172.5    596.3   1298.0   366.70    406.1    168.1      4.4     18.4      0.0    126.5       64    445.5    445.5      100     0.000     0.000     0.000     0.000       89        0        0        0        0        0        0    14.459      100     53.8    7.782     1.37        4        8     1998  Parnassus_SweetPotatoGDDCRO_Sand_S1_riegoIRR.PRM
  Tot(10)        1        5     1999    251.3    595.5   1297.7   368.38    326.4    249.7      1.6     13.0      0.0    130.0       68    449.4    449.4      100     0.000     0.000     0.000     0.000       95        0        0        0        0        0        0    15.496      100     53.7    8.321     1.44       10        8     1999  Parnassus_SweetPotatoGDDCRO_Sand_S1_riegoIRR.PRM
  Tot(11)        1        5     2000    189.4    614.7   1296.4   369.55    386.7    187.9      1.5     10.9      0.0    119.9       60    460.4    460.4      100     0.000     0.000     0.000     0.000       95        0        0        0        0        0        0    15.548      100     53.7    8.348     1.44       10        8     2000  Parnassus_SweetPotatoGDDCRO_Sand_S1_riegoIRR.PRM
  Tot(12)        1        5     2001    205.3    606.9   1296.5   371.14    440.1    198.6      6.7     45.3      0.0    141.8       77    467.9    467.9      100     0.000     0.000     0.000     0.000       94        0        0        0        0        0        0    15.328      100     53.8    8.246     1.36        9        8     2001  Parnassus_SweetPotatoGDDCRO_Sand_S1_riegoIRR.PRM
  Tot(13)        1        5     2002    407.0    574.2   1303.4   373.28    375.0    365.7     41.3    214.2      0.0    111.7       60    430.9    430.9      100     0.000     0.000     0.000     0.000       97        0        0        0        0        0        0    16.042      100     53.8    8.631     1.60       12        8     2002  Parnassus_SweetPotatoGDDCRO_Sand_S1_riegoIRR.PRM
  Tot(14)        1        5     2003    278.2    603.3   1294.3   375.80    362.5    263.0     15.2     60.1      0.0    118.8       62    460.9    454.7      100     0.000     0.000     0.000     0.000       95        0        0        0        0        0        0    15.925      100     53.8    8.564     1.48        8        8     2003  Parnassus_SweetPotatoGDDCRO_Sand_S1_riegoIRR.PRM
  Tot(15)        1        5     2004    135.0    616.4   1301.3   377.52    434.3    134.7      0.3      0.5      0.0    123.0       62    462.9    469.0      100     0.000     0.000     0.000     0.000       93        0        0        0        0        0        0    15.456      100     53.8    8.316     1.43        8        8     2004  Parnassus_SweetPotatoGDDCRO_Sand_S1_riegoIRR.PRM
  Tot(16)        1        5     2005    756.7    526.9   1294.9   379.80    189.6    636.7    120.0    314.8      0.0    133.8       78    394.1    394.1      100     0.000     0.000     0.000     0.000       94        0        0        0        0        0        0    15.774      100     53.6    8.460     1.61        8        8     2005  Parnassus_SweetPotatoGDDCRO_Sand_S1_riegoIRR.PRM
  Tot(17)        1        5     2006    294.0    588.5   1304.5   381.90    331.1    284.2      9.8     78.1      0.0    116.3       59    434.5    434.5      100     0.000     0.000     0.000     0.000       93        0        0        0        0        0        0    15.784      100     53.8    8.488     1.55        8        8     2006  Parnassus_SweetPotatoGDDCRO_Sand_S1_riegoIRR.PRM
  Tot(18)        1        5     2007    278.6    569.3   1297.8   383.79    349.7    270.6      8.0     61.1      0.0    126.7       76    444.0    444.0      100     0.000     0.000     0.000     0.000       92        0        0        0        0        0        0    15.541      100     53.8    8.362     1.47        7        8     2007  Parnassus_SweetPotatoGDDCRO_Sand_S1_riegoIRR.PRM
  Tot(19)        1        5     2008    237.2    590.9   1306.3   385.60    372.1    211.4     25.8     46.4      0.0    114.3       59    439.2    439.2      100     0.000     0.000     0.000     0.000       94        0        0        0        0        0        0    16.023      100     53.8    8.617     1.56        9        8     2008  Parnassus_SweetPotatoGDDCRO_Sand_S1_riegoIRR.PRM
  Tot(20)        1        5     2009    257.1    577.8   1304.1   387.43    328.7    254.4      2.7     34.5      0.0    130.4       71    434.3    434.3      100     0.000     0.000     0.000     0.000       96        0        0        0        0        0        0    16.252      100     53.8    8.740     1.55       11        8     2009  Parnassus_SweetPotatoGDDCRO_Sand_S1_riegoIRR.PRM
  Tot(21)        1        5     2010    486.8    525.2   1303.3   389.90    189.9    443.5     43.3    132.7      0.0    124.2       72    389.7    389.7      100     0.000     0.000     0.000     0.000       93        0        0        0        0        0        0    16.071      100     53.8    8.646     1.69        7        8     2010  Parnassus_SweetPotatoGDDCRO_Sand_S1_riegoIRR.PRM
  Tot(22)        1        5     2011    465.1    553.8   1303.1   391.65    233.6    427.4     37.7    157.4      0.0    119.2       62    400.6    400.6      100     0.000     0.000     0.000     0.000       95        0        0        0        0        0        0    16.384      100     53.8    8.820     1.70       10        8     2011  Parnassus_SweetPotatoGDDCRO_Sand_S1_riegoIRR.PRM
  Tot(23)        1        5     2012    260.8    582.0   1304.4   393.85    362.4    250.8     10.0     43.6      0.0    128.7       70    439.9    439.9      100     0.000     0.000     0.000     0.000       93        0        0        0        0        0        0    16.048      100     53.8    8.633     1.52        8        8     2012  Parnassus_SweetPotatoGDDCRO_Sand_S1_riegoIRR.PRM
  Tot(24)        1        5     2013    206.0    570.9   1303.4   396.52    346.8    204.7      1.3      6.2      0.0    134.1       73    425.6    425.6      100     0.000     0.000     0.000     0.000       94        0        0        0        0        0        0    16.383      100     53.8    8.810     1.58        9        8     2013  Parnassus_SweetPotatoGDDCRO_Sand_S1_riegoIRR.PRM
  Tot(25)        1        5     2014    166.3    587.3   1307.3   398.65    406.9    163.8      2.5     17.4      0.0    129.7       69    439.8    439.8      100     0.000     0.000     0.000     0.000       94        0        0        0        0        0        0    16.316      100     55.0    8.974     1.58        9        8     2014  Parnassus_SweetPotatoGDDCRO_Sand_S1_riegoIRR.PRM
  Tot(26)        1        5     2015    170.5    579.1   1296.0   400.83    388.0    166.4      4.1     16.3      0.0    122.3       66    432.0    432.0      100     0.000     0.000     0.000     0.000       94        0        0        0        0        0        0    16.495      100     53.6    8.846     1.60        8        8     2015  Parnassus_SweetPotatoGDDCRO_Sand_S1_riegoIRR.PRM
  Tot(27)        1        5     2016    289.2    562.2   1302.7   404.21    296.9    282.8      6.4     34.1      0.0    131.9       75    423.6    423.6      100     0.000     0.000     0.000     0.000       92        0        0        0        0        0        0    16.283      100     53.8    8.762     1.58        6        8     2016  Parnassus_SweetPotatoGDDCRO_Sand_S1_riegoIRR.PRM
  Tot(28)        1        5     2017    400.3    537.4   1306.8   406.21    335.4    340.8     59.5    156.2      0.0    121.8       74    409.6    409.6      100     0.000     0.000     0.000     0.000       94        0        0        0        0        0        0    16.540      100     53.8    8.898     1.68        9        8     2017  Parnassus_SweetPotatoGDDCRO_Sand_S1_riegoIRR.PRM
  Tot(29)        1        5     2018    244.0    558.2   1306.7   408.21    358.8    238.3      5.7     47.2      0.0    140.8       83    425.4    425.4      100     0.000     0.000     0.000     0.000       96        0        0        0        0        0        0    16.917      100     55.0    9.304     1.65       11        8     2018  Parnassus_SweetPotatoGDDCRO_Sand_S1_riegoIRR.PRM
