AquaCrop 6.0 (March 2017) - Output created on (date) : 3/5/2021   at (time) : 3:58:48 PM

    RunNr     Day1   Month1    Year1     Rain      ETo       GD     CO2      Irri   Infilt   Runoff    Drain   Upflow        E     E/Ex       Tr      TrW   Tr/Trx    SaltIn   SaltOut    SaltUp  SaltProf     Cycle   SaltStr  FertStr  WeedStr  TempStr   ExpStr   StoStr  BioMass  Brelative   HI     Yield     WPet     DayN   MonthN    YearN
                                           mm       mm    °C.day    ppm        mm       mm       mm       mm       mm       mm        %       mm       mm        %    ton/ha    ton/ha    ton/ha    ton/ha      days       %        %        %        %        %        %    ton/ha        %       %    ton/ha    kg/m3
   Tot(1)        1        5     1990    130.3    611.2   1303.9   354.39    463.7    121.0      9.3      0.0      0.0    155.8       80    461.3    461.3      100     0.000     0.000     0.000     0.000       94        0        0        0        0        0       -0    14.827      100     53.8    7.973     1.30        9        8     1990  Parnassus_SweetPotatoGDDCRO_Clay_S1_riegoIRR.PRM
   Tot(2)        1        5     1991    123.7    589.6   1298.3   355.61    461.6    112.6     11.1      9.8      0.0    145.2       81    452.9    452.9      100     0.000     0.000     0.000     0.000       95        0        0        0        0        0        0    14.896      100     53.9    8.025     1.35       10        8     1991  Parnassus_SweetPotatoGDDCRO_Clay_S1_riegoIRR.PRM
   Tot(3)        1        5     1992    139.4    604.8   1302.7   356.45    446.8    131.5      7.9      0.9      0.0    150.5       79    460.1    460.1      100     0.000     0.000     0.000     0.000       95        0        0        0        0        0        0    14.959      100     53.8    8.044     1.32       10        8     1992  Parnassus_SweetPotatoGDDCRO_Clay_S1_riegoIRR.PRM
   Tot(4)        1        5     1993    281.3    572.3   1294.6   356.10    354.9    255.3     26.0     35.0      0.0    159.2       96    448.7    448.7      100     0.000     0.000     0.000     0.000       97        0        0        0        0        0       -0    15.135      100     53.8    8.147     1.35       12        8     1993  Parnassus_SweetPotatoGDDCRO_Clay_S1_riegoIRR.PRM
   Tot(5)        1        5     1994    116.2    653.1   1306.7   358.83    525.3    113.3      2.9      0.4      0.0    163.9       84    506.5    506.5      100     0.000     0.000     0.000     0.000       93        0        0        0        0        0        0    14.849      100     53.8    7.988     1.20        8        8     1994  Parnassus_SweetPotatoGDDCRO_Clay_S1_riegoIRR.PRM
   Tot(6)        1        5     1995    176.3    597.5   1303.6   360.82    424.6    171.2      5.1      7.7      0.0    161.9       86    454.2    454.2      100     0.000     0.000     0.000     0.000       92        0        0        0        0        0        0    14.747      100     53.8    7.935     1.29        7        8     1995  Parnassus_SweetPotatoGDDCRO_Clay_S1_riegoIRR.PRM
   Tot(7)        1        5     1996    149.1    613.9   1300.0   362.61    446.6    145.9      3.2      0.5      0.0    156.3       82    469.2    469.2      100     0.000     0.000     0.000     0.000       94        0        0        0        0        0        0    14.953      100     53.8    8.044     1.29        9        8     1996  Parnassus_SweetPotatoGDDCRO_Clay_S1_riegoIRR.PRM
   Tot(8)        1        5     1997    243.7    605.0   1303.0   363.73    412.0    187.3     56.4     25.3      0.0    162.3       78    443.1    443.1      100     0.000     0.000     0.000     0.000       95        0        0        0        0        0        0    15.480      100     53.8    8.333     1.38       10        8     1997  Parnassus_SweetPotatoGDDCRO_Clay_S1_riegoIRR.PRM
   Tot(9)        1        5     1998    172.5    596.3   1298.0   366.70    427.7    153.0     19.5      0.0      0.0    168.3       86    445.5    445.5      100     0.000     0.000     0.000     0.000       89        0        0        0        0        0        0    14.459      100     53.8    7.782     1.27        4        8     1998  Parnassus_SweetPotatoGDDCRO_Clay_S1_riegoIRR.PRM
  Tot(10)        1        5     1999    251.3    595.5   1297.7   368.38    345.6    235.2     16.1      4.3      0.0    160.5       84    449.4    449.4      100     0.000     0.000     0.000     0.000       95        0        0        0        0        0        0    15.496      100     53.7    8.321     1.37       10        8     1999  Parnassus_SweetPotatoGDDCRO_Clay_S1_riegoIRR.PRM
  Tot(11)        1        5     2000    189.4    614.7   1296.4   369.55    410.3    174.8     14.6      0.0      0.0    158.9       79    459.9    459.9      100     0.000     0.000     0.000     0.000       95        0        0        0        0        1        0    15.532      100     53.7    8.340     1.35       10        8     2000  Parnassus_SweetPotatoGDDCRO_Clay_S1_riegoIRR.PRM
  Tot(12)        1        5     2001    205.3    606.9   1296.5   371.14    443.9    183.0     22.3     23.8      0.0    168.2       91    467.9    467.9      100     0.000     0.000     0.000     0.000       94        0        0        0        0        0        0    15.328      100     53.8    8.246     1.30        9        8     2001  Parnassus_SweetPotatoGDDCRO_Clay_S1_riegoIRR.PRM
  Tot(13)        1        5     2002    407.0    574.2   1303.4   373.28    378.9    292.4    114.6    126.3      0.0    147.2       79    430.9    430.9      100     0.000     0.000     0.000     0.000       97        0        0        0        0        0        0    16.042      100     53.8    8.631     1.50       12        8     2002  Parnassus_SweetPotatoGDDCRO_Clay_S1_riegoIRR.PRM
  Tot(14)        1        5     2003    278.2    603.3   1294.3   375.80    377.5    228.2     50.0     19.2      0.0    156.1       82    460.9    454.7      100     0.000     0.000     0.000     0.000       95        0        0        0        0        0        0    15.925      100     53.8    8.564     1.39        8        8     2003  Parnassus_SweetPotatoGDDCRO_Clay_S1_riegoIRR.PRM
  Tot(15)        1        5     2004    135.0    616.4   1301.3   377.52    455.7    131.0      4.0      0.5      0.0    159.0       80    462.3    468.5      100     0.000     0.000     0.000     0.000       93        0        0        0        0        0        0    15.438      100     53.9    8.320     1.35        8        8     2004  Parnassus_SweetPotatoGDDCRO_Clay_S1_riegoIRR.PRM
  Tot(16)        1        5     2005    756.7    526.9   1294.9   379.80    148.9    468.0    288.7    191.9      0.0    154.0       90    300.4    300.4       76     0.000     0.000     0.000     0.000       94        0        0        0        0        0       21    11.522       74     53.6    6.179     1.37        8        8     2005  Parnassus_SweetPotatoGDDCRO_Clay_S1_riegoIRR.PRM
  Tot(17)        1        5     2006    294.0    588.5   1304.5   381.90    334.0    242.2     51.8     37.6      0.0    154.7       79    413.9    413.9       95     0.000     0.000     0.000     0.000       93        0        0        0        0        0        5    14.881       94     53.8    8.003     1.41        8        8     2006  Parnassus_SweetPotatoGDDCRO_Clay_S1_riegoIRR.PRM
  Tot(18)        1        5     2007    278.6    569.3   1297.8   383.79    343.0    246.9     31.7     26.2      0.0    149.1       90    444.0    444.0      100     0.000     0.000     0.000     0.000       92        0        0        0        0        0        0    15.541      100     53.8    8.362     1.42        7        8     2007  Parnassus_SweetPotatoGDDCRO_Clay_S1_riegoIRR.PRM
  Tot(19)        1        5     2008    237.2    590.9   1306.3   385.60    385.2    175.3     61.9      0.1      0.0    154.7       80    439.2    439.2      100     0.000     0.000     0.000     0.000       94        0        0        0        0        0        0    16.023      100     53.8    8.617     1.46        9        8     2008  Parnassus_SweetPotatoGDDCRO_Clay_S1_riegoIRR.PRM
  Tot(20)        1        5     2009    257.1    577.8   1304.1   387.43    343.1    237.2     19.9     20.6      0.0    158.2       86    434.3    434.3      100     0.000     0.000     0.000     0.000       96        0        0        0        0        0        0    16.252      100     53.8    8.740     1.48       11        8     2009  Parnassus_SweetPotatoGDDCRO_Clay_S1_riegoIRR.PRM
  Tot(21)        1        5     2010    486.8    525.2   1303.3   389.90    172.8    374.1    112.7     34.1      0.0    153.0       88    389.5    389.5      100     0.000     0.000     0.000     0.000       93        0        0        0        0        0       -0    16.066      100     53.8    8.643     1.60        7        8     2010  Parnassus_SweetPotatoGDDCRO_Clay_S1_riegoIRR.PRM
  Tot(22)        1        5     2011    465.1    553.8   1303.1   391.65    242.8    336.6    128.5     71.8      0.0    157.6       82    383.3    383.3       96     0.000     0.000     0.000     0.000       95        0        0        0        0        0        5    15.452       94     53.8    8.318     1.54       10        8     2011  Parnassus_SweetPotatoGDDCRO_Clay_S1_riegoIRR.PRM
  Tot(23)        1        5     2012    260.8    582.0   1304.4   393.85    375.5    216.3     44.5      3.5      0.0    157.2       86    439.9    439.9      100     0.000     0.000     0.000     0.000       93        0        0        0        0        0        0    16.048      100     53.8    8.633     1.45        8        8     2012  Parnassus_SweetPotatoGDDCRO_Clay_S1_riegoIRR.PRM
  Tot(24)        1        5     2013    206.0    570.9   1303.4   396.52    366.1    190.8     15.2      0.2      0.0    162.1       88    425.6    425.6      100     0.000     0.000     0.000     0.000       94        0        0        0        0        0        0    16.383      100     53.8    8.810     1.51        9        8     2013  Parnassus_SweetPotatoGDDCRO_Clay_S1_riegoIRR.PRM
  Tot(25)        1        5     2014    166.3    587.3   1307.3   398.65    418.4    157.2      9.1      9.4      0.0    159.8       85    439.5    439.5      100     0.000     0.000     0.000     0.000       94        0        0        0        0        0        0    16.306      100     55.0    8.970     1.50        9        8     2014  Parnassus_SweetPotatoGDDCRO_Clay_S1_riegoIRR.PRM
  Tot(26)        1        5     2015    170.5    579.1   1296.0   400.83    403.8    153.0     17.5      0.8      0.0    157.1       84    431.8    431.8      100     0.000     0.000     0.000     0.000       94        0        0        0        0        0        0    16.488      100     53.6    8.843     1.51        8        8     2015  Parnassus_SweetPotatoGDDCRO_Clay_S1_riegoIRR.PRM
  Tot(27)        1        5     2016    289.2    562.2   1302.7   404.21    302.7    256.6     32.6      1.0      0.0    160.0       90    423.6    423.6      100     0.000     0.000     0.000     0.000       92        0        0        0        0        0        0    16.282      100     53.8    8.762     1.51        6        8     2016  Parnassus_SweetPotatoGDDCRO_Clay_S1_riegoIRR.PRM
  Tot(28)        1        5     2017    400.3    537.4   1306.8   406.21    324.8    265.4    134.9     63.3      0.0    148.4       91    409.6    409.6      100     0.000     0.000     0.000     0.000       94        0        0        0        0        0        0    16.540      100     53.8    8.898     1.60        9        8     2017  Parnassus_SweetPotatoGDDCRO_Clay_S1_riegoIRR.PRM
  Tot(29)        1        5     2018    244.0    558.2   1306.7   408.21    356.2    221.1     22.9     26.8      0.0    158.3       94    425.4    425.4      100     0.000     0.000     0.000     0.000       96        0        0        0        0        0        0    16.917      100     55.0    9.304     1.60       11        8     2018  Parnassus_SweetPotatoGDDCRO_Clay_S1_riegoIRR.PRM
