AquaCrop 6.0 (March 2017) - Output created on (date) : 3/5/2021   at (time) : 4:13:47 PM

    RunNr     Day1   Month1    Year1     Rain      ETo       GD     CO2      Irri   Infilt   Runoff    Drain   Upflow        E     E/Ex       Tr      TrW   Tr/Trx    SaltIn   SaltOut    SaltUp  SaltProf     Cycle   SaltStr  FertStr  WeedStr  TempStr   ExpStr   StoStr  BioMass  Brelative   HI     Yield     WPet     DayN   MonthN    YearN
                                           mm       mm    °C.day    ppm        mm       mm       mm       mm       mm       mm        %       mm       mm        %    ton/ha    ton/ha    ton/ha    ton/ha      days       %        %        %        %        %        %    ton/ha        %       %    ton/ha    kg/m3
   Tot(1)       31       10     1990    190.9    345.0   1543.9   355.00      0.0    190.7      0.2     22.9      0.0    124.2       81    155.4    154.9       71     0.000     0.000     0.000     0.000       77        0        0        0        0        6       20     6.206       73     52.3    3.247     1.16       17        1     1991  Parnassus_TomatoGDDCRO_SandyLoam_S2_rainfed.PRM
   Tot(2)       31       10     1991     87.8    365.2   1537.9   356.03      0.0     86.5      1.3     14.0      0.0     82.5       40    104.5    104.8       58     0.000     0.000     0.000     0.000       77        0        0        0        0       54       34     3.974       46     47.9    1.903     1.02       17        1     1992  Parnassus_TomatoGDDCRO_SandyLoam_S2_rainfed.PRM
   Tot(3)       31       10     1992     44.2    385.9   1525.0   356.27      0.0     44.2      0.0      0.0      0.0     61.5       23     91.1     91.0       60     0.000     0.000     0.000     0.000       75        0        0        0        0       59       31     3.183       38     50.1    1.595     1.04       15        1     1993  Parnassus_TomatoGDDCRO_SandyLoam_S2_rainfed.PRM
   Tot(4)       31       10     1993    150.4    366.0   1547.5   357.47      0.0    146.7      3.7     24.3      0.0     86.1       45    144.3    142.1       70     0.000     0.000     0.000     0.000       77        0        0        0        0       40       20     5.719       66     52.2    2.983     1.30       17        1     1994  Parnassus_TomatoGDDCRO_SandyLoam_S2_rainfed.PRM
   Tot(5)       31       10     1994    143.5    368.0   1549.8   359.82      0.0    139.9      3.6     39.9      0.0    112.5       54    101.4    103.6       56     0.000     0.000     0.000     0.000       77        0        0        0        0       54       36     3.724       43     47.3    1.761     0.82       17        1     1995  Parnassus_TomatoGDDCRO_SandyLoam_S2_rainfed.PRM
   Tot(6)       31       10     1995     80.2    370.4   1542.3   361.72      0.0     80.2      0.0      0.0      0.0     93.2       43    101.1    101.0       56     0.000     0.000     0.000     0.000       76        0        0        0        0       52       33     3.879       45     49.7    1.927     0.99       16        1     1996  Parnassus_TomatoGDDCRO_SandyLoam_S2_rainfed.PRM
   Tot(7)       31       10     1996    175.0    374.5   1557.3   363.17      0.0    170.4      4.6     59.9      0.0    104.9       56    120.9    121.1       57     0.000     0.000     0.000     0.000       78        0        0        0        0       47       32     4.517       51     49.3    2.226     0.99       19        1     1997  Parnassus_TomatoGDDCRO_SandyLoam_S2_rainfed.PRM
   Tot(8)       31       10     1997    102.6    360.2   1530.3   365.22      0.0    102.6      0.0      0.0      0.0     91.6       46    120.8    120.1       62     0.000     0.000     0.000     0.000       75        0        0        0        0       48       27     4.659       55     50.3    2.343     1.10       15        1     1998  Parnassus_TomatoGDDCRO_SandyLoam_S2_rainfed.PRM
   Tot(9)       31       10     1998    250.0    349.9   1554.8   367.54      0.0    235.9     14.1     42.0      0.0    107.1       63    184.7    185.4       88     0.000     0.000     0.000     0.000       76        0        0        0        0       12        8     7.554       87     59.4    4.484     1.54       17        1     1999  Parnassus_TomatoGDDCRO_SandyLoam_S2_rainfed.PRM
  Tot(10)       31       10     1999    166.8    373.2   1563.5   368.97      0.0    163.4      3.4     57.1      0.0    104.4       54    116.8    116.8       58     0.000     0.000     0.000     0.000       81        0        0        0        0       50       33     4.657       49     50.7    2.360     1.07       22        1     2000  Parnassus_TomatoGDDCRO_SandyLoam_S2_rainfed.PRM
  Tot(11)       31       10     2000    296.9    347.3   1555.0   370.35      0.0    277.4     19.5     84.7      0.0     78.6       42    190.2    190.2       99     0.000     0.000     0.000     0.000       78        0        0        0        0        7        1     8.602       95     59.6    5.126     1.91       19        1     2001  Parnassus_TomatoGDDCRO_SandyLoam_S2_rainfed.PRM
  Tot(12)       31       10     2001    309.6    335.8   1554.9   372.21      0.0    289.0     20.6     97.5      0.0    117.1       68    164.4    164.4       86     0.000     0.000     0.000     0.000       77        0        0        0        0       37       11     7.055       79     59.2    4.175     1.48       18        1     2002  Parnassus_TomatoGDDCRO_SandyLoam_S2_rainfed.PRM
  Tot(13)       31       10     2002    106.3    354.0   1534.1   374.54      0.0    106.3      0.0      0.0      0.0     87.4       45    127.2    126.4       67     0.000     0.000     0.000     0.000       75        0        0        0        0       48       23     5.128       59     51.7    2.650     1.24       15        1     2003  Parnassus_TomatoGDDCRO_SandyLoam_S2_rainfed.PRM
  Tot(14)       31       10     2003    214.3    369.7   1534.8   376.66      0.0    212.4      1.9     24.1      0.0    109.8       62    184.9    184.7       82     0.000     0.000     0.000     0.000       76        0        0        0        0       10       13     7.237       81     54.9    3.976     1.35       16        1     2004  Parnassus_TomatoGDDCRO_SandyLoam_S2_rainfed.PRM
  Tot(15)       31       10     2004    107.0    392.9   1528.7   378.66      0.0    107.0      0.0      0.0      0.0     99.9       37    109.5    109.5       68     0.000     0.000     0.000     0.000       76        0        0        0        0       58       23     4.117       46     51.6    2.125     1.01       16        1     2005  Parnassus_TomatoGDDCRO_SandyLoam_S2_rainfed.PRM
  Tot(16)       31       10     2005    181.1    344.7   1556.2   380.85      0.0    181.0      0.1      0.0      0.0    101.4       59    175.2    176.1       86     0.000     0.000     0.000     0.000       77        0        0        0        0       31       10     7.791       85     57.8    4.500     1.63       18        1     2006  Parnassus_TomatoGDDCRO_SandyLoam_S2_rainfed.PRM
  Tot(17)       31       10     2006    142.6    361.9   1524.9   382.85      0.0    142.2      0.4     27.0      0.0    101.2       56    128.2    127.9       61     0.000     0.000     0.000     0.000       74        0        0        0        0       41       28     5.073       58     49.4    2.504     1.09       14        1     2007  Parnassus_TomatoGDDCRO_SandyLoam_S2_rainfed.PRM
  Tot(18)       31       10     2007    286.0    348.4   1553.4   384.70      0.0    252.8     33.2    114.6      0.0    106.9       63    143.1    143.4       70     0.000     0.000     0.000     0.000       77        0        0        0        0       43       23     5.976       65     53.5    3.197     1.28       18        1     2008  Parnassus_TomatoGDDCRO_SandyLoam_S2_rainfed.PRM
  Tot(19)       31       10     2008    161.8    351.5   1551.9   386.51      0.0    154.9      6.9     61.6      0.0    103.0       55    105.0    105.0       57     0.000     0.000     0.000     0.000       77        0        0        0        0       50       34     4.441       48     48.9    2.172     1.06       18        1     2009  Parnassus_TomatoGDDCRO_SandyLoam_S2_rainfed.PRM
  Tot(20)       31       10     2009    158.1    348.8   1514.3   388.66      0.0    151.7      6.4      0.0      0.0     69.3       35    164.2    161.5       89     0.000     0.000     0.000     0.000       75        0        0        0        0       32        8     7.104       79     56.6    4.020     1.72       15        1     2010  Parnassus_TomatoGDDCRO_SandyLoam_S2_rainfed.PRM
  Tot(21)       31       10     2010    145.0    358.0   1566.1   390.77      0.0    144.4      0.6     13.5      0.0     93.7       52    147.2    149.8       71     0.000     0.000     0.000     0.000       81        0        0        0        0       44       21     6.598       67     54.4    3.590     1.50       22        1     2011  Parnassus_TomatoGDDCRO_SandyLoam_S2_rainfed.PRM
  Tot(22)       31       10     2011     53.6    372.4   1534.5   392.75      0.0     53.6      0.0      0.0      0.0     73.1       30     92.6     92.4       59     0.000     0.000     0.000     0.000       76        0        0        0        0       59       33     3.677       40     48.9    1.798     1.09       16        1     2012  Parnassus_TomatoGDDCRO_SandyLoam_S2_rainfed.PRM
  Tot(23)       31       10     2012     83.7    360.9   1534.4   395.19      0.0     83.7      0.0      2.4      0.0     83.6       44    112.7    112.7       58     0.000     0.000     0.000     0.000       76        0        0        0        0       46       31     4.806       52     48.0    2.305     1.17       16        1     2013  Parnassus_TomatoGDDCRO_SandyLoam_S2_rainfed.PRM
  Tot(24)       31       10     2013     90.7    356.2   1519.7   397.58      0.0     90.6      0.1      5.9      0.0     84.3       42    112.5    112.3       62     0.000     0.000     0.000     0.000       74        0        0        0        0       54       28     4.651       52     50.3    2.340     1.19       14        1     2014  Parnassus_TomatoGDDCRO_SandyLoam_S2_rainfed.PRM
  Tot(25)       31       10     2014    138.4    346.9   1528.3   399.74      0.0    138.2      0.2      0.0      0.0     83.7       49    162.4    162.0       79     0.000     0.000     0.000     0.000       75        0        0        0        0       10       14     7.151       78     54.4    3.888     1.58       15        1     2015  Parnassus_TomatoGDDCRO_SandyLoam_S2_rainfed.PRM
  Tot(26)       31       10     2015    171.1    337.1   1541.9   402.52      0.0    170.8      0.3      5.8      0.0    129.7       80    146.5    146.8       72     0.000     0.000     0.000     0.000       75        0        0        0        0       33       20     6.591       71     54.0    3.556     1.29       15        1     2016  Parnassus_TomatoGDDCRO_SandyLoam_S2_rainfed.PRM
  Tot(27)       31       10     2016    160.2    342.8   1527.6   405.21      0.0    159.3      0.9     24.0      0.0    112.1       68    136.4    136.5       66     0.000     0.000     0.000     0.000       75        0        0        0        0       33       23     6.170       67     51.3    3.165     1.27       15        1     2017  Parnassus_TomatoGDDCRO_SandyLoam_S2_rainfed.PRM
  Tot(28)       31       10     2017    403.5    300.9   1554.8   407.21      0.0    392.1     11.4     84.4      0.0    123.3       88    184.9    185.3      100     0.000     0.000     0.000     0.000       76        0        0        0        0        0        0     9.503      100     61.0    5.792     1.89       17        1     2018  Parnassus_TomatoGDDCRO_SandyLoam_S2_rainfed.PRM
  Tot(29)       31       10     2018     48.1    354.6   1527.4   409.21      0.0     48.1      0.0      0.0      0.0     58.4       27    101.4    101.1       60     0.000     0.000     0.000     0.000       75        0        0        0        0       55       29     4.381       47     50.3    2.202     1.38       15        1     2019  Parnassus_TomatoGDDCRO_SandyLoam_S2_rainfed.PRM
