AquaCrop 6.0 (March 2017) - Output created on (date) : 3/5/2021   at (time) : 4:06:33 PM

    RunNr     Day1   Month1    Year1     Rain      ETo       GD     CO2      Irri   Infilt   Runoff    Drain   Upflow        E     E/Ex       Tr      TrW   Tr/Trx    SaltIn   SaltOut    SaltUp  SaltProf     Cycle   SaltStr  FertStr  WeedStr  TempStr   ExpStr   StoStr  BioMass  Brelative   HI     Yield     WPet     DayN   MonthN    YearN
                                           mm       mm    °C.day    ppm        mm       mm       mm       mm       mm       mm        %       mm       mm        %    ton/ha    ton/ha    ton/ha    ton/ha      days       %        %        %        %        %        %    ton/ha        %       %    ton/ha    kg/m3
   Tot(1)        1       10     1990    266.7    480.7   1295.0   355.00      0.0    266.6      0.1      8.4      0.0     75.5       51    348.0    348.0       95     0.000     0.000     0.000     0.000      101        0        0        0        0        0        4    15.578       96     52.5    8.180     1.93       15        1     1991  Parnassus_SweetPotatoGDDCRO_SandyLoam_S2_rainfed.PRM
   Tot(2)        1       10     1991    133.4    514.7   1296.8   356.03      0.0    132.8      0.6      0.0      0.0     76.1       46    241.0    241.0       64     0.000     0.000     0.000     0.000      102        0        0        0        0       23       31     9.987       61     39.8    3.976     1.25       17        1     1992  Parnassus_SweetPotatoGDDCRO_SandyLoam_S2_rainfed.PRM
   Tot(3)        1       10     1992     75.0    522.9   1294.1   356.27      0.0     75.0      0.0      0.0      0.0     78.8       40    171.4    170.9       49     0.000     0.000     0.000     0.000       99        0        0        0        0       64       42     6.730       43     32.2    2.166     0.87       12        1     1993  Parnassus_SweetPotatoGDDCRO_SandyLoam_S2_rainfed.PRM
   Tot(4)        1       10     1993    191.1    507.3   1295.5   357.47      0.0    187.4      3.7      0.1      0.0     82.5       49    275.7    276.2       73     0.000     0.000     0.000     0.000      100        0        0        0        0       30       21    11.608       72     45.4    5.273     1.48       15        1     1994  Parnassus_SweetPotatoGDDCRO_SandyLoam_S2_rainfed.PRM
   Tot(5)        1       10     1994    189.2    512.7   1299.0   359.82      0.0    186.7      2.5      0.0      0.0     80.3       51    286.5    286.5       74     0.000     0.000     0.000     0.000      101        0        0        0        0        4       21    12.073       74     44.4    5.364     1.47       15        1     1995  Parnassus_SweetPotatoGDDCRO_SandyLoam_S2_rainfed.PRM
   Tot(6)        1       10     1995    224.4    492.5   1294.2   361.72      0.0    220.2      4.2     62.2      0.0    122.8       72    212.9    210.7       60     0.000     0.000     0.000     0.000       99        0        0        0        0       62       33     8.813       55     40.0    3.529     1.05       13        1     1996  Parnassus_SweetPotatoGDDCRO_SandyLoam_S2_rainfed.PRM
   Tot(7)        1       10     1996    252.2    518.2   1297.0   363.17      0.0    248.3      3.9      0.0      0.0    100.9       69    328.3    330.5       81     0.000     0.000     0.000     0.000      105        0        0        0        0       11       16    13.948       81     47.1    6.570     1.53       19        1     1997  Parnassus_SweetPotatoGDDCRO_SandyLoam_S2_rainfed.PRM
   Tot(8)        1       10     1997    222.5    492.9   1295.1   365.22      0.0    219.0      3.5     41.3      0.0    112.4       71    244.5    244.5       67     0.000     0.000     0.000     0.000       98        0        0        0        0       52       26    10.404       65     41.4    4.302     1.21       13        1     1998  Parnassus_SweetPotatoGDDCRO_SandyLoam_S2_rainfed.PRM
   Tot(9)        1       10     1998    421.8    472.2   1296.4   367.54      0.0    394.8     27.0    100.6      0.0     83.1       60    360.8    360.8       98     0.000     0.000     0.000     0.000      101        0        0        0        0        0        1    16.513       99     53.4    8.820     1.99       15        1     1999  Parnassus_SweetPotatoGDDCRO_SandyLoam_S2_rainfed.PRM
  Tot(10)        1       10     1999    392.9    510.7   1294.6   368.97      0.0    378.2     14.7    132.8      0.0    119.5       88    306.0    306.0       75     0.000     0.000     0.000     0.000      111        0        0        0        0        0       20    14.215       77     45.1    6.415     1.51       25        1     2000  Parnassus_SweetPotatoGDDCRO_SandyLoam_S2_rainfed.PRM
  Tot(11)        1       10     2000    370.5    492.9   1294.3   370.35      0.0    349.7     20.8     12.3      0.0     79.6       50    343.7    339.3       92     0.000     0.000     0.000     0.000      105        0        0        0        0       32        6    16.167       92     51.9    8.384     1.98       19        1     2001  Parnassus_SweetPotatoGDDCRO_SandyLoam_S2_rainfed.PRM
  Tot(12)        1       10     2001    455.1    474.8   1301.5   372.21      0.0    432.1     23.0    120.0      0.0    106.1       73    350.6    355.0       97     0.000     0.000     0.000     0.000      103        0        0        0        0        0        3    16.844       98     53.1    8.951     1.96       17        1     2002  Parnassus_SweetPotatoGDDCRO_SandyLoam_S2_rainfed.PRM
  Tot(13)        1       10     2002    205.1    482.7   1295.7   374.54      0.0    201.3      3.8     33.8      0.0     95.7       60    244.3    244.3       69     0.000     0.000     0.000     0.000       98        0        0        0        0       56       24    10.830       66     43.8    4.741     1.40       13        1     2003  Parnassus_SweetPotatoGDDCRO_SandyLoam_S2_rainfed.PRM
  Tot(14)        1       10     2003    291.2    498.9   1301.8   376.66      0.0    290.5      0.7      5.7      0.0     93.1       65    359.8    359.8       92     0.000     0.000     0.000     0.000       99        0        0        0        0        0        6    15.514       93     51.8    8.032     1.77       13        1     2004  Parnassus_SweetPotatoGDDCRO_SandyLoam_S2_rainfed.PRM
  Tot(15)        1       10     2004    141.3    544.0   1304.9   378.66      0.0    141.1      0.2      5.3      0.0     82.4       46    226.3    226.3       57     0.000     0.000     0.000     0.000      100        0        0        0        0       60       36     9.095       53     36.8    3.345     1.09       14        1     2005  Parnassus_SweetPotatoGDDCRO_SandyLoam_S2_rainfed.PRM
  Tot(16)        1       10     2005    709.8    451.0   1299.1   380.85      0.0    632.2     77.6    334.8      0.0    114.9       97    341.9    341.9       94     0.000     0.000     0.000     0.000      103        0        0        0        0        0        5    16.552       95     52.5    8.683     1.90       18        1     2006  Parnassus_SweetPotatoGDDCRO_SandyLoam_S2_rainfed.PRM
  Tot(17)        1       10     2006    208.1    489.5   1304.2   382.85      0.0    207.7      0.4      0.0      0.0     70.4       47    315.7    315.7       85     0.000     0.000     0.000     0.000       95        0        0        0        0        1       12    14.097       87     49.3    6.944     1.80        9        1     2007  Parnassus_SweetPotatoGDDCRO_SandyLoam_S2_rainfed.PRM
  Tot(18)        1       10     2007    615.8    469.0   1298.7   384.70      0.0    554.2     61.6    294.3      0.0    114.1       92    323.6    323.6       86     0.000     0.000     0.000     0.000      104        0        0        0        0        0       11    15.464       87     49.5    7.662     1.75       19        1     2008  Parnassus_SweetPotatoGDDCRO_SandyLoam_S2_rainfed.PRM
  Tot(19)        1       10     2008    265.9    487.5   1302.9   386.51      0.0    259.4      6.5     55.1      0.0    102.8       72    286.1    286.1       76     0.000     0.000     0.000     0.000      103        0        0        0        0        0       19    13.730       77     44.9    6.159     1.59       18        1     2009  Parnassus_SweetPotatoGDDCRO_SandyLoam_S2_rainfed.PRM
  Tot(20)        1       10     2009    249.9    482.5   1301.4   388.66      0.0    241.6      8.3      1.3      0.0    110.1       74    275.1    275.1       76     0.000     0.000     0.000     0.000       98        0        0        0        0       24       18    12.909       76     46.9    6.057     1.58       12        1     2010  Parnassus_SweetPotatoGDDCRO_SandyLoam_S2_rainfed.PRM
  Tot(21)        1       10     2010    297.1    496.2   1299.4   390.77      0.0    293.4      3.7     47.8      0.0    112.5       82    311.7    311.7       80     0.000     0.000     0.000     0.000      109        0        0        0        0        0       17    15.295       79     47.1    7.210     1.70       24        1     2011  Parnassus_SweetPotatoGDDCRO_SandyLoam_S2_rainfed.PRM
  Tot(22)        1       10     2011    208.1    498.0   1296.9   392.75      0.0    205.0      3.1     25.3      0.0    124.1       86    237.9    237.9       62     0.000     0.000     0.000     0.000      100        0        0        0        0       21       31    10.522       61     39.8    4.186     1.16       14        1     2012  Parnassus_SweetPotatoGDDCRO_SandyLoam_S2_rainfed.PRM
  Tot(23)        1       10     2012    277.9    494.6   1299.4   395.19      0.0    252.2     25.7     92.0      0.0     87.7       59    257.2    257.2       69     0.000     0.000     0.000     0.000      100        0        0        0        0        5       25    12.089       69     41.8    5.051     1.47       15        1     2013  Parnassus_SweetPotatoGDDCRO_SandyLoam_S2_rainfed.PRM
  Tot(24)        1       10     2013    139.2    481.4   1306.2   397.58      0.0    139.2      0.0      3.5      0.0     74.0       52    244.2    244.2       66     0.000     0.000     0.000     0.000       97        0        0        0        0        4       27    11.354       67     41.2    4.673     1.47       11        1     2014  Parnassus_SweetPotatoGDDCRO_SandyLoam_S2_rainfed.PRM
  Tot(25)        1       10     2014    197.7    482.6   1298.0   399.74      0.0    197.5      0.2      0.0      0.0     77.5       52    297.0    297.7       82     0.000     0.000     0.000     0.000       98        0        0        0        0       28       14    14.285       83     48.5    6.923     1.85       12        1     2015  Parnassus_SweetPotatoGDDCRO_SandyLoam_S2_rainfed.PRM
  Tot(26)        1       10     2015    272.3    460.6   1300.5   402.52      0.0    272.0      0.3      5.5      0.0    114.9       83    322.6    322.6       91     0.000     0.000     0.000     0.000       96        0        0        0        0        0        7    15.777       92     51.5    8.124     1.86       10        1     2016  Parnassus_SweetPotatoGDDCRO_SandyLoam_S2_rainfed.PRM
  Tot(27)        1       10     2016    308.3    456.4   1299.9   405.21      0.0    307.1      1.2     23.3      0.0    116.6       88    332.7    332.7       94     0.000     0.000     0.000     0.000       98        0        0        0        0        0        4    16.737       96     52.5    8.794     1.96       12        1     2017  Parnassus_SweetPotatoGDDCRO_SandyLoam_S2_rainfed.PRM
  Tot(28)        1       10     2017    602.5    419.9   1294.6   407.21      0.0    586.0     16.5    144.1      0.0    113.6       88    318.9    318.9      100     0.000     0.000     0.000     0.000      100        0        0        0        0        0        0    18.143      100     53.7    9.749     2.26       14        1     2018  Parnassus_SweetPotatoGDDCRO_SandyLoam_S2_rainfed.PRM
  Tot(29)        1       10     2018    172.4    479.4   1295.5   409.21      0.0    167.3      5.1     46.5      0.0    109.9       68    190.8    190.8       56     0.000     0.000     0.000     0.000       98        0        0        0        0       58       36     9.066       52     37.2    3.374     1.12       13        1     2019  Parnassus_SweetPotatoGDDCRO_SandyLoam_S2_rainfed.PRM
