AquaCrop 6.0 (March 2017) - Output created on (date) : 3/5/2021   at (time) : 4:00:42 PM

    RunNr     Day1   Month1    Year1     Rain      ETo       GD     CO2      Irri   Infilt   Runoff    Drain   Upflow        E     E/Ex       Tr      TrW   Tr/Trx    SaltIn   SaltOut    SaltUp  SaltProf     Cycle   SaltStr  FertStr  WeedStr  TempStr   ExpStr   StoStr  BioMass  Brelative   HI     Yield     WPet     DayN   MonthN    YearN
                                           mm       mm    °C.day    ppm        mm       mm       mm       mm       mm       mm        %       mm       mm        %    ton/ha    ton/ha    ton/ha    ton/ha      days       %        %        %        %        %        %    ton/ha        %       %    ton/ha    kg/m3
   Tot(1)        1        5     1990    130.3    611.2   1303.9   354.39    452.5    123.3      7.0      0.0      0.0    148.9       76    461.3    461.3      100     0.000     0.000     0.000     0.000       94        0        0        0        0        0        0    14.827      100     53.8    7.973     1.31        9        8     1990  Parnassus_SweetPotatoGDDCRO_ClayLoam_S1_riegoIRR.PRM
   Tot(2)        1        5     1991    123.7    589.6   1298.3   355.61    445.3    112.7     11.0      1.8      0.0    138.4       77    453.5    453.5      100     0.000     0.000     0.000     0.000       95        0        0        0        0        0        0    14.917      100     53.8    8.022     1.36       10        8     1991  Parnassus_SweetPotatoGDDCRO_ClayLoam_S1_riegoIRR.PRM
   Tot(3)        1        5     1992    139.4    604.8   1302.7   356.45    436.4    133.1      6.3      0.0      0.0    144.7       76    460.1    460.1      100     0.000     0.000     0.000     0.000       95        0        0        0        0        0        0    14.959      100     53.8    8.044     1.34       10        8     1992  Parnassus_SweetPotatoGDDCRO_ClayLoam_S1_riegoIRR.PRM
   Tot(4)        1        5     1993    281.3    572.3   1294.6   356.10    339.7    249.3     32.0     18.3      0.0    156.6       94    448.7    448.7      100     0.000     0.000     0.000     0.000       97        0        0        0        0        0        0    15.135      100     53.8    8.147     1.35       12        8     1993  Parnassus_SweetPotatoGDDCRO_ClayLoam_S1_riegoIRR.PRM
   Tot(5)        1        5     1994    116.2    653.1   1306.7   358.83    516.4    114.1      2.1      0.0      0.0    158.2       81    506.5    506.5      100     0.000     0.000     0.000     0.000       93        0        0        0        0        0        0    14.849      100     53.8    7.988     1.21        8        8     1994  Parnassus_SweetPotatoGDDCRO_ClayLoam_S1_riegoIRR.PRM
   Tot(6)        1        5     1995    176.3    597.5   1303.6   360.82    413.5    172.4      3.9      2.9      0.0    158.7       84    454.2    454.2      100     0.000     0.000     0.000     0.000       92        0        0        0        0        0        0    14.747      100     53.8    7.935     1.30        7        8     1995  Parnassus_SweetPotatoGDDCRO_ClayLoam_S1_riegoIRR.PRM
   Tot(7)        1        5     1996    149.1    613.9   1300.0   362.61    438.2    146.3      2.8      0.0      0.0    150.2       79    469.8    469.8      100     0.000     0.000     0.000     0.000       94        0        0        0        0        0        0    14.972      100     53.8    8.054     1.30        9        8     1996  Parnassus_SweetPotatoGDDCRO_ClayLoam_S1_riegoIRR.PRM
   Tot(8)        1        5     1997    243.7    605.0   1303.0   363.73    396.5    188.2     55.5     21.4      0.0    153.6       74    443.1    443.1      100     0.000     0.000     0.000     0.000       95        0        0        0        0        0        0    15.480      100     53.8    8.333     1.40       10        8     1997  Parnassus_SweetPotatoGDDCRO_ClayLoam_S1_riegoIRR.PRM
   Tot(9)        1        5     1998    172.5    596.3   1298.0   366.70    416.3    156.5     16.0      0.0      0.0    162.4       83    445.5    445.5      100     0.000     0.000     0.000     0.000       89        0        0        0        0        0        0    14.459      100     53.8    7.782     1.29        4        8     1998  Parnassus_SweetPotatoGDDCRO_ClayLoam_S1_riegoIRR.PRM
  Tot(10)        1        5     1999    251.3    595.5   1297.7   368.38    333.2    236.2     15.1      0.0      0.0    155.4       82    449.4    449.4      100     0.000     0.000     0.000     0.000       95        0        0        0        0        0        0    15.496      100     53.7    8.321     1.38       10        8     1999  Parnassus_SweetPotatoGDDCRO_ClayLoam_S1_riegoIRR.PRM
  Tot(11)        1        5     2000    189.4    614.7   1296.4   369.55    398.9    177.3     12.1      0.0      0.0    151.4       75    460.7    460.7      100     0.000     0.000     0.000     0.000       95        0        0        0        0        0        0    15.557      100     53.7    8.353     1.37       10        8     2000  Parnassus_SweetPotatoGDDCRO_ClayLoam_S1_riegoIRR.PRM
  Tot(12)        1        5     2001    205.3    606.9   1296.5   371.14    425.7    182.5     22.8     12.7      0.0    162.6       88    467.9    467.9      100     0.000     0.000     0.000     0.000       94        0        0        0        0        0        0    15.328      100     53.8    8.246     1.31        9        8     2001  Parnassus_SweetPotatoGDDCRO_ClayLoam_S1_riegoIRR.PRM
  Tot(13)        1        5     2002    407.0    574.2   1303.4   373.28    366.0    288.0    119.0    117.8      0.0    140.6       76    430.9    430.9      100     0.000     0.000     0.000     0.000       97        0        0        0        0        0        0    16.042      100     53.8    8.631     1.52       12        8     2002  Parnassus_SweetPotatoGDDCRO_ClayLoam_S1_riegoIRR.PRM
  Tot(14)        1        5     2003    278.2    603.3   1294.3   375.80    355.4    231.4     46.8     10.0      0.0    148.5       78    460.9    454.7      100     0.000     0.000     0.000     0.000       95        0        0        0        0        0        0    15.925      100     53.8    8.564     1.41        8        8     2003  Parnassus_SweetPotatoGDDCRO_ClayLoam_S1_riegoIRR.PRM
  Tot(15)        1        5     2004    135.0    616.4   1301.3   377.52    445.7    132.2      2.8      0.0      0.0    152.2       77    462.9    469.1      100     0.000     0.000     0.000     0.000       93        0        0        0        0        0        0    15.458      100     53.8    8.316     1.36        8        8     2004  Parnassus_SweetPotatoGDDCRO_ClayLoam_S1_riegoIRR.PRM
  Tot(16)        1        5     2005    756.7    526.9   1294.9   379.80    134.9    491.9    264.8    118.0      0.0    149.9       88    394.2    394.2      100     0.000     0.000     0.000     0.000       94        0        0        0        0        0        0    15.780      100     53.6    8.463     1.56        8        8     2005  Parnassus_SweetPotatoGDDCRO_ClayLoam_S1_riegoIRR.PRM
  Tot(17)        1        5     2006    294.0    588.5   1304.5   381.90    328.6    250.3     43.7     27.8      0.0    148.6       76    434.5    434.5      100     0.000     0.000     0.000     0.000       93        0        0        0        0        0        0    15.784      100     53.8    8.488     1.46        8        8     2006  Parnassus_SweetPotatoGDDCRO_ClayLoam_S1_riegoIRR.PRM
  Tot(18)        1        5     2007    278.6    569.3   1297.8   383.79    324.7    243.3     35.3     10.4      0.0    144.6       87    444.0    444.0      100     0.000     0.000     0.000     0.000       92        0        0        0        0        0        0    15.541      100     53.8    8.362     1.43        7        8     2007  Parnassus_SweetPotatoGDDCRO_ClayLoam_S1_riegoIRR.PRM
  Tot(19)        1        5     2008    237.2    590.9   1306.3   385.60    370.9    180.2     57.0      0.0      0.0    147.5       76    439.2    439.2      100     0.000     0.000     0.000     0.000       94        0        0        0        0        0        0    16.023      100     53.8    8.617     1.48        9        8     2008  Parnassus_SweetPotatoGDDCRO_ClayLoam_S1_riegoIRR.PRM
  Tot(20)        1        5     2009    257.1    577.8   1304.1   387.43    327.9    233.0     24.1      8.5      0.0    153.0       83    434.3    434.3      100     0.000     0.000     0.000     0.000       96        0        0        0        0        0        0    16.252      100     53.8    8.740     1.50       11        8     2009  Parnassus_SweetPotatoGDDCRO_ClayLoam_S1_riegoIRR.PRM
  Tot(21)        1        5     2010    486.8    525.2   1303.3   389.90    153.4    377.1    109.7     23.5      0.0    148.1       85    389.6    389.6      100     0.000     0.000     0.000     0.000       93        0        0        0        0        0        0    16.071      100     53.8    8.645     1.61        7        8     2010  Parnassus_SweetPotatoGDDCRO_ClayLoam_S1_riegoIRR.PRM
  Tot(22)        1        5     2011    465.1    553.8   1303.1   391.65    230.4    354.6    110.5     69.3      0.0    150.3       78    400.6    400.6      100     0.000     0.000     0.000     0.000       95        0        0        0        0        0        0    16.384      100     53.8    8.820     1.61       10        8     2011  Parnassus_SweetPotatoGDDCRO_ClayLoam_S1_riegoIRR.PRM
  Tot(23)        1        5     2012    260.8    582.0   1304.4   393.85    362.3    224.0     36.8      0.0      0.0    154.3       84    439.9    439.9      100     0.000     0.000     0.000     0.000       93        0        0        0        0        0        0    16.048      100     53.8    8.633     1.46        8        8     2012  Parnassus_SweetPotatoGDDCRO_ClayLoam_S1_riegoIRR.PRM
  Tot(24)        1        5     2013    206.0    570.9   1303.4   396.52    356.2    194.5     11.5      0.0      0.0    158.1       86    425.6    425.6      100     0.000     0.000     0.000     0.000       94        0        0        0        0        0        0    16.383      100     53.8    8.810     1.52        9        8     2013  Parnassus_SweetPotatoGDDCRO_ClayLoam_S1_riegoIRR.PRM
  Tot(25)        1        5     2014    166.3    587.3   1307.3   398.65    403.3    154.9     11.4      0.1      0.0    153.5       82    439.8    439.8      100     0.000     0.000     0.000     0.000       94        0        0        0        0        0        0    16.318      100     55.0    8.975     1.52        9        8     2014  Parnassus_SweetPotatoGDDCRO_ClayLoam_S1_riegoIRR.PRM
  Tot(26)        1        5     2015    170.5    579.1   1296.0   400.83    392.5    156.1     14.4      0.0      0.0    151.3       81    432.3    432.3      100     0.000     0.000     0.000     0.000       94        0        0        0        0        0        0    16.504      100     53.6    8.851     1.52        8        8     2015  Parnassus_SweetPotatoGDDCRO_ClayLoam_S1_riegoIRR.PRM
  Tot(27)        1        5     2016    289.2    562.2   1302.7   404.21    294.3    260.5     28.7      0.0      0.0    156.5       88    423.6    423.6      100     0.000     0.000     0.000     0.000       92        0        0        0        0        0        0    16.283      100     53.8    8.762     1.52        6        8     2016  Parnassus_SweetPotatoGDDCRO_ClayLoam_S1_riegoIRR.PRM
  Tot(28)        1        5     2017    400.3    537.4   1306.8   406.21    309.5    270.1    130.2     58.9      0.0    143.4       88    409.6    409.6      100     0.000     0.000     0.000     0.000       94        0        0        0        0        0        0    16.540      100     53.8    8.898     1.62        9        8     2017  Parnassus_SweetPotatoGDDCRO_ClayLoam_S1_riegoIRR.PRM
  Tot(29)        1        5     2018    244.0    558.2   1306.7   408.21    340.2    220.3     23.7     14.7      0.0    155.7       92    425.4    425.4      100     0.000     0.000     0.000     0.000       96        0        0        0        0        0        0    16.917      100     55.0    9.304     1.61       11        8     2018  Parnassus_SweetPotatoGDDCRO_ClayLoam_S1_riegoIRR.PRM
