AquaCrop 6.0 (March 2017) - Output created on (date) : 3/5/2021   at (time) : 4:07:51 PM

    RunNr     Day1   Month1    Year1     Rain      ETo       GD     CO2      Irri   Infilt   Runoff    Drain   Upflow        E     E/Ex       Tr      TrW   Tr/Trx    SaltIn   SaltOut    SaltUp  SaltProf     Cycle   SaltStr  FertStr  WeedStr  TempStr   ExpStr   StoStr  BioMass  Brelative   HI     Yield     WPet     DayN   MonthN    YearN
                                           mm       mm    °C.day    ppm        mm       mm       mm       mm       mm       mm        %       mm       mm        %    ton/ha    ton/ha    ton/ha    ton/ha      days       %        %        %        %        %        %    ton/ha        %       %    ton/ha    kg/m3
   Tot(1)        1        5     1990    102.5    447.9   1516.3   354.39    356.3     93.7      8.8      0.0      0.0    192.4       88    271.1    265.6      100     0.000     0.000     0.000     0.000       73        0        0        0        0        0        0     8.046      100     57.5    4.629     1.00       14        7     1990  Parnassus_TomatoGDDCRO_Clay_S1_riegoIRR.PRM
   Tot(2)        1        5     1991    112.3    433.2   1529.3   355.61    351.5    100.5     11.8     12.3      0.0    181.1       90    272.5    272.9      100     0.000     0.000     0.000     0.000       74        0        0        0        0        0        0     8.198      100     57.7    4.727     1.04       15        7     1991  Parnassus_TomatoGDDCRO_Clay_S1_riegoIRR.PRM
   Tot(3)        1        5     1992    109.9    443.3   1529.3   356.45    344.7    101.7      8.2      3.5      0.0    185.9       87    272.1    273.2      100     0.000     0.000     0.000     0.000       74        0        0        0        0        0        0     8.177      100     57.5    4.704     1.03       15        7     1992  Parnassus_TomatoGDDCRO_Clay_S1_riegoIRR.PRM
   Tot(4)        1        5     1993    254.0    409.8   1539.8   356.10    238.5    227.3     26.7     37.7      0.0    179.3       97    262.1    260.6      100     0.000     0.000     0.000     0.000       75        0        0        0        0        0        0     8.294      100     57.7    4.782     1.08       16        7     1993  Parnassus_TomatoGDDCRO_Clay_S1_riegoIRR.PRM
   Tot(5)        1        5     1994     89.9    481.6   1502.9   358.83    404.6     87.3      2.6      0.1      0.0    202.8       90    302.7    302.7      100     0.000     0.000     0.000     0.000       72        0        0        0        0        0        0     7.997      100     55.7    4.455     0.88       13        7     1994  Parnassus_TomatoGDDCRO_Clay_S1_riegoIRR.PRM
   Tot(6)        1        5     1995    117.2    450.2   1503.9   360.82    350.4    113.8      3.4      6.3      0.0    193.4       90    277.9    277.8      100     0.000     0.000     0.000     0.000       72        0        0        0        0        0        0     8.033      100     55.7    4.475     0.95       13        7     1995  Parnassus_TomatoGDDCRO_Clay_S1_riegoIRR.PRM
   Tot(7)        1        5     1996    108.6    456.3   1512.3   362.61    359.8    105.6      3.0      0.5      0.0    193.3       91    286.7    288.5      100     0.000     0.000     0.000     0.000       73        0        0        0        0        0        0     8.183      100     55.7    4.558     0.95       14        7     1996  Parnassus_TomatoGDDCRO_Clay_S1_riegoIRR.PRM
   Tot(8)        1        5     1997    205.1    452.1   1530.4   363.73    328.6    154.0     51.1     36.2      0.0    197.2       85    262.9    261.6      100     0.000     0.000     0.000     0.000       74        0        0        0        0        0        0     8.379      100     57.7    4.831     1.05       15        7     1997  Parnassus_TomatoGDDCRO_Clay_S1_riegoIRR.PRM
   Tot(9)        1        5     1998    142.2    456.7   1494.5   366.70    335.1    121.8     20.4      0.6      0.0    198.9       88    271.5    271.7       99     0.000     0.000     0.000     0.000       71        0        0        0        0        0        1     7.899      100     53.9    4.256     0.90       12        7     1998  Parnassus_TomatoGDDCRO_Clay_S1_riegoIRR.PRM
  Tot(10)        1        5     1999    225.4    439.9   1530.0   368.38    247.6    207.9     17.5      6.7      0.0    194.6       92    268.8    269.4      100     0.000     0.000     0.000     0.000       74        0        0        0        0        0        0     8.481      100     57.7    4.891     1.06       15        7     1999  Parnassus_TomatoGDDCRO_Clay_S1_riegoIRR.PRM
  Tot(11)        1        5     2000    123.8    459.7   1508.6   369.55    352.3    112.2     11.6      0.2      0.0    199.2       89    279.1    278.4      100     0.000     0.000     0.000     0.000       73        0        0        0        0        0        0     8.345      100     55.7    4.649     0.97       14        7     2000  Parnassus_TomatoGDDCRO_Clay_S1_riegoIRR.PRM
  Tot(12)        1        5     2001    165.4    452.0   1506.2   371.14    353.9    142.3     23.1     28.5      0.0    194.9       94    287.0    287.2      100     0.000     0.000     0.000     0.000       73        0        0        0        0        0        0     8.369      100     55.7    4.662     0.97       14        7     2001  Parnassus_TomatoGDDCRO_Clay_S1_riegoIRR.PRM
  Tot(13)        1        5     2002    383.6    417.6   1533.4   373.28    277.4    268.0    115.6    129.1      0.0    181.2       88    250.1    250.9      100     0.000     0.000     0.000     0.000       75        0        0        0        0        0        0     8.716      100     57.7    5.026     1.17       16        7     2002  Parnassus_TomatoGDDCRO_Clay_S1_riegoIRR.PRM
  Tot(14)        1        5     2003    242.9    454.0   1519.4   375.80    283.0    197.6     45.3     23.9      0.0    198.5       88    271.5    271.2      100     0.000     0.000     0.000     0.000       73        0        0        0        0        0        0     8.500      100     57.5    4.890     1.04       14        7     2003  Parnassus_TomatoGDDCRO_Clay_S1_riegoIRR.PRM
  Tot(15)        1        5     2004     92.5    464.1   1520.0   377.52    380.4     89.1      3.4      0.1      0.0    199.2       90    284.6    284.4      100     0.000     0.000     0.000     0.000       73        0        0        0        0        0        0     8.517      100     57.5    4.900     1.01       14        7     2004  Parnassus_TomatoGDDCRO_Clay_S1_riegoIRR.PRM
  Tot(16)        1        5     2005    691.0    391.6   1527.5   379.80     89.8    437.6    253.4    166.8      0.0    185.2       95    170.8    173.0       73     0.000     0.000     0.000     0.000       73        0        0        0        0        0       21     6.046       71     57.5    3.478     0.98       14        7     2005  Parnassus_TomatoGDDCRO_Clay_S1_riegoIRR.PRM
  Tot(17)        1        5     2006    220.8    438.1   1503.6   381.90    294.0    177.6     43.2     43.5      0.0    193.9       88    248.1    245.5       96     0.000     0.000     0.000     0.000       72        0        0        0        0        0        3     8.075       96     55.7    4.499     1.02       13        7     2006  Parnassus_TomatoGDDCRO_Clay_S1_riegoIRR.PRM
  Tot(18)        1        5     2007    234.8    418.3   1504.1   383.79    259.6    203.4     31.4     31.7      0.0    180.1       94    265.2    265.2      100     0.000     0.000     0.000     0.000       72        0        0        0        0        0        0     8.493      100     55.7    4.731     1.06       13        7     2007  Parnassus_TomatoGDDCRO_Clay_S1_riegoIRR.PRM
  Tot(19)        1        5     2008    121.5    440.5   1513.5   385.60    330.6    111.5     10.0      2.3      0.0    191.0       88    262.7    262.8      100     0.000     0.000     0.000     0.000       73        0        0        0        0        0        0     8.656      100     55.7    4.822     1.06       14        7     2008  Parnassus_TomatoGDDCRO_Clay_S1_riegoIRR.PRM
  Tot(20)        1        5     2009    247.7    420.3   1542.4   387.43    224.1    226.7     21.0     22.6      0.0    187.7       92    254.8    255.3      100     0.000     0.000     0.000     0.000       75        0        0        0        0        0        0     8.953      100     57.7    5.163     1.17       16        7     2009  Parnassus_TomatoGDDCRO_Clay_S1_riegoIRR.PRM
  Tot(21)        1        5     2010    363.7    401.7   1515.0   389.90    178.6    268.7     95.0     78.1      0.0    183.8       91    195.5    195.9       83     0.000     0.000     0.000     0.000       72        0        0        0        0        0       14     6.924       81     55.7    3.857     1.02       13        7     2010  Parnassus_TomatoGDDCRO_Clay_S1_riegoIRR.PRM
  Tot(22)        1        5     2011    373.4    407.5   1510.3   391.65    200.9    263.1    110.3     78.5      0.0    186.9       89    214.9    214.8       92     0.000     0.000     0.000     0.000       73        0        0        0        0        0        7     7.910       91     55.7    4.406     1.10       14        7     2011  Parnassus_TomatoGDDCRO_Clay_S1_riegoIRR.PRM
  Tot(23)        1        5     2012    178.2    434.6   1500.0   393.85    289.5    155.0     23.2      3.6      0.0    189.3       91    262.6    262.1       99     0.000     0.000     0.000     0.000       72        0        0        0        0        0        1     8.543      100     55.7    4.759     1.05       13        7     2012  Parnassus_TomatoGDDCRO_Clay_S1_riegoIRR.PRM
  Tot(24)        1        5     2013    186.5    418.5   1515.6   396.52    253.8    169.7     16.8      0.0      0.0    188.8       91    249.1    249.3      100     0.000     0.000     0.000     0.000       73        0        0        0        0        0        0     8.852      100     57.5    5.092     1.16       14        7     2013  Parnassus_TomatoGDDCRO_Clay_S1_riegoIRR.PRM
  Tot(25)        1        5     2014    139.0    431.7   1515.2   398.65    321.0    130.0      9.0     11.9      0.0    192.4       92    261.8    262.5      100     0.000     0.000     0.000     0.000       73        0        0        0        0        0        0     8.887      100     57.5    5.113     1.13       14        7     2014  Parnassus_TomatoGDDCRO_Clay_S1_riegoIRR.PRM
  Tot(26)        1        5     2015    145.2    429.4   1516.8   400.83    302.4    128.9     16.3      0.2      0.0    192.7       90    254.4    255.7      100     0.000     0.000     0.000     0.000       73        0        0        0        0        0        0     8.943      100     57.5    5.145     1.15       14        7     2015  Parnassus_TomatoGDDCRO_Clay_S1_riegoIRR.PRM
  Tot(27)        1        5     2016    214.5    425.9   1510.7   404.21    245.3    192.2     22.3      4.2      0.0    191.6       92    256.0    253.9      100     0.000     0.000     0.000     0.000       72        0        0        0        0        0        0     8.858      100     55.7    4.935     1.10       13        7     2016  Parnassus_TomatoGDDCRO_Clay_S1_riegoIRR.PRM
  Tot(28)        1        5     2017    352.7    390.6   1516.1   406.21    250.3    220.6    132.1     73.2      0.0    170.8       93    241.3    241.3      100     0.000     0.000     0.000     0.000       73        0        0        0        0        0        0     9.015      100     57.5    5.186     1.26       14        7     2017  Parnassus_TomatoGDDCRO_Clay_S1_riegoIRR.PRM
  Tot(29)        1        5     2018    220.7    400.7   1526.7   408.21    249.9    195.5     25.2     34.4      0.0    176.9       95    248.6    248.8      100     0.000     0.000     0.000     0.000       74        0        0        0        0        0        0     9.193      100     55.9    5.138     1.21       15        7     2018  Parnassus_TomatoGDDCRO_Clay_S1_riegoIRR.PRM
