AquaCrop 6.0 (March 2017) - Output created on (date) : 3/5/2021   at (time) : 4:08:54 PM

    RunNr     Day1   Month1    Year1     Rain      ETo       GD     CO2      Irri   Infilt   Runoff    Drain   Upflow        E     E/Ex       Tr      TrW   Tr/Trx    SaltIn   SaltOut    SaltUp  SaltProf     Cycle   SaltStr  FertStr  WeedStr  TempStr   ExpStr   StoStr  BioMass  Brelative   HI     Yield     WPet     DayN   MonthN    YearN
                                           mm       mm    °C.day    ppm        mm       mm       mm       mm       mm       mm        %       mm       mm        %    ton/ha    ton/ha    ton/ha    ton/ha      days       %        %        %        %        %        %    ton/ha        %       %    ton/ha    kg/m3
   Tot(1)        1        5     1990    102.5    447.9   1516.3   354.39      0.0    102.4      0.1      0.0      0.0    104.6       36    138.1    137.1       70     0.000     0.000     0.000     0.000       73        0        0        0        0       52       19     4.164       52     53.5    2.229     0.92       14        7     1990  Parnassus_TomatoGDDCRO_ClayLoam_S1_rainfed.PRM
   Tot(2)        1        5     1991    112.3    433.2   1529.3   355.61      0.0    110.5      1.8      0.0      0.0    118.9       49    139.6    140.2       62     0.000     0.000     0.000     0.000       74        0        0        0        0       50       28     4.210       52     50.3    2.119     0.82       15        7     1991  Parnassus_TomatoGDDCRO_ClayLoam_S1_rainfed.PRM
   Tot(3)        1        5     1992    109.9    443.3   1529.3   356.45      0.0    109.9      0.0      0.0      0.0    108.5       43    146.9    146.8       64     0.000     0.000     0.000     0.000       74        0        0        0        0       48       24     4.488       55     51.3    2.303     0.90       15        7     1992  Parnassus_TomatoGDDCRO_ClayLoam_S1_rainfed.PRM
   Tot(4)        1        5     1993    254.0    409.8   1539.8   356.10      0.0    233.5     20.5     17.0      0.0    166.6       88    192.5    192.0       75     0.000     0.000     0.000     0.000       75        0        0        0        0       31       17     6.270       76     53.6    3.362     0.94       16        7     1993  Parnassus_TomatoGDDCRO_ClayLoam_S1_rainfed.PRM
   Tot(5)        1        5     1994     89.9    481.6   1502.9   358.83      0.0     89.9      0.0      0.0      0.0    118.0       37    118.3    119.0       60     0.000     0.000     0.000     0.000       72        0        0        0        0       58       29     3.182       40     48.2    1.534     0.65       13        7     1994  Parnassus_TomatoGDDCRO_ClayLoam_S1_rainfed.PRM
   Tot(6)        1        5     1995    117.2    450.2   1503.9   360.82      0.0    115.4      1.8      3.2      0.0    134.8       43    118.7    118.3       65     0.000     0.000     0.000     0.000       72        0        0        0        0       59       24     3.445       43     50.4    1.736     0.68       13        7     1995  Parnassus_TomatoGDDCRO_ClayLoam_S1_rainfed.PRM
   Tot(7)        1        5     1996    108.6    456.3   1512.3   362.61      0.0    108.6      0.0      0.0      0.0    128.5       44    123.7    124.0       62     0.000     0.000     0.000     0.000       73        0        0        0        0       57       28     3.518       43     49.0    1.723     0.68       14        7     1996  Parnassus_TomatoGDDCRO_ClayLoam_S1_rainfed.PRM
   Tot(8)        1        5     1997    205.1    452.1   1530.4   363.73      0.0    172.0     33.1     17.4      0.0    102.8       38    186.5    185.4       82     0.000     0.000     0.000     0.000       74        0        0        0        0       30       11     6.016       72     55.5    3.338     1.15       15        7     1997  Parnassus_TomatoGDDCRO_ClayLoam_S1_rainfed.PRM
   Tot(9)        1        5     1998    142.2    456.7   1494.5   366.70      0.0    138.3      3.9      0.0      0.0    122.5       38    133.0    133.0       76     0.000     0.000     0.000     0.000       71        0        0        0        0       58       16     3.860       49     51.0    1.968     0.77       12        7     1998  Parnassus_TomatoGDDCRO_ClayLoam_S1_rainfed.PRM
  Tot(10)        1        5     1999    225.4    439.9   1530.0   368.38      0.0    225.2      0.2      0.0      0.0    149.3       62    197.3    196.9       82     0.000     0.000     0.000     0.000       74        0        0        0        0       40       12     6.250       74     55.4    3.460     1.00       15        7     1999  Parnassus_TomatoGDDCRO_ClayLoam_S1_rainfed.PRM
  Tot(11)        1        5     2000    123.8    459.7   1508.6   369.55      0.0    123.8      0.0      0.0      0.0    110.6       40    155.6    156.8       69     0.000     0.000     0.000     0.000       73        0        0        0        0       46       20     4.727       57     50.6    2.394     0.90       14        7     2000  Parnassus_TomatoGDDCRO_ClayLoam_S1_rainfed.PRM
  Tot(12)        1        5     2001    165.4    452.0   1506.2   371.14      0.0    150.8     14.6     10.8      0.0    148.0       60    142.0    142.6       59     0.000     0.000     0.000     0.000       73        0        0        0        0       50       31     4.196       51     46.9    1.967     0.68       14        7     2001  Parnassus_TomatoGDDCRO_ClayLoam_S1_rainfed.PRM
  Tot(13)        1        5     2002    383.6    417.6   1533.4   373.28      0.0    280.9    102.7    115.0      0.0    109.7       49    191.4    190.4       82     0.000     0.000     0.000     0.000       75        0        0        0        0       10       11     6.677       77     55.4    3.697     1.23       16        7     2002  Parnassus_TomatoGDDCRO_ClayLoam_S1_rainfed.PRM
  Tot(14)        1        5     2003    242.9    454.0   1519.4   375.80      0.0    224.6     18.3      4.8      0.0    134.3       53    208.1    206.5       85     0.000     0.000     0.000     0.000       73        0        0        0        0       30        9     6.539       78     55.7    3.643     1.06       14        7     2003  Parnassus_TomatoGDDCRO_ClayLoam_S1_rainfed.PRM
  Tot(15)        1        5     2004     92.5    464.1   1520.0   377.52      0.0     92.5      0.0      0.0      0.0    118.5       39    120.6    123.3       60     0.000     0.000     0.000     0.000       73        0        0        0        0       55       28     3.672       44     50.1    1.839     0.77       14        7     2004  Parnassus_TomatoGDDCRO_ClayLoam_S1_rainfed.PRM
  Tot(16)        1        5     2005    691.0    391.6   1527.5   379.80      0.0    477.0    214.0     81.5      0.0    167.9       84    227.8    223.5      100     0.000     0.000     0.000     0.000       73        0        0        0        0        4        0     8.411       99     57.5    4.839     1.22       14        7     2005  Parnassus_TomatoGDDCRO_ClayLoam_S1_rainfed.PRM
  Tot(17)        1        5     2006    220.8    438.1   1503.6   381.90      0.0    197.5     23.3      6.1      0.0    112.0       46    204.6    207.0       87     0.000     0.000     0.000     0.000       72        0        0        0        0       11        7     6.793       81     54.4    3.693     1.17       13        7     2006  Parnassus_TomatoGDDCRO_ClayLoam_S1_rainfed.PRM
  Tot(18)        1        5     2007    234.8    418.3   1504.1   383.79      0.0    216.6     18.2     13.7      0.0    142.7       73    201.9    203.0       78     0.000     0.000     0.000     0.000       72        0        0        0        0        5       14     6.630       79     52.4    3.473     1.01       13        7     2007  Parnassus_TomatoGDDCRO_ClayLoam_S1_rainfed.PRM
  Tot(19)        1        5     2008    121.5    440.5   1513.5   385.60      0.0    121.3      0.2      0.0      0.0    104.9       42    160.8    161.0       70     0.000     0.000     0.000     0.000       73        0        0        0        0       40       18     5.355       62     51.1    2.739     1.03       14        7     2008  Parnassus_TomatoGDDCRO_ClayLoam_S1_rainfed.PRM
  Tot(20)        1        5     2009    247.7    420.3   1542.4   387.43      0.0    240.9      6.8      3.9      0.0    149.3       70    214.9    213.9       88     0.000     0.000     0.000     0.000       75        0        0        0        0       12        8     7.639       86     56.2    4.293     1.18       16        7     2009  Parnassus_TomatoGDDCRO_ClayLoam_S1_rainfed.PRM
  Tot(21)        1        5     2010    363.7    401.7   1515.0   389.90      0.0    297.2     66.5     19.9      0.0    131.4       61    221.3    218.9       99     0.000     0.000     0.000     0.000       72        0        0        0        0       16        1     8.080       94     55.6    4.491     1.27       13        7     2010  Parnassus_TomatoGDDCRO_ClayLoam_S1_rainfed.PRM
  Tot(22)        1        5     2011    373.4    407.5   1510.3   391.65      0.0    295.0     78.4     51.0      0.0    121.1       52    210.7    210.9       99     0.000     0.000     0.000     0.000       73        0        0        0        0       13        0     7.841       90     55.6    4.361     1.31       14        7     2011  Parnassus_TomatoGDDCRO_ClayLoam_S1_rainfed.PRM
  Tot(23)        1        5     2012    178.2    434.6   1500.0   393.85      0.0    174.2      4.0      0.0      0.0    129.3       49    169.3    169.3       80     0.000     0.000     0.000     0.000       72        0        0        0        0       46       13     5.560       65     53.3    2.965     0.99       13        7     2012  Parnassus_TomatoGDDCRO_ClayLoam_S1_rainfed.PRM
  Tot(24)        1        5     2013    186.5    418.5   1515.6   396.52      0.0    185.8      0.7      0.0      0.0    129.6       57    183.0    185.2       80     0.000     0.000     0.000     0.000       73        0        0        0        0       38       13     6.546       75     54.8    3.589     1.15       14        7     2013  Parnassus_TomatoGDDCRO_ClayLoam_S1_rainfed.PRM
  Tot(25)        1        5     2014    139.0    431.7   1515.2   398.65      0.0    138.3      0.7      0.0      0.0    141.8       57    142.8    144.1       65     0.000     0.000     0.000     0.000       73        0        0        0        0       50       25     4.909       56     51.5    2.526     0.89       14        7     2014  Parnassus_TomatoGDDCRO_ClayLoam_S1_rainfed.PRM
  Tot(26)        1        5     2015    145.2    429.4   1516.8   400.83      0.0    143.0      2.2      0.0      0.0    114.8       47    163.8    163.3       73     0.000     0.000     0.000     0.000       73        0        0        0        0       38       17     5.803       65     53.6    3.110     1.12       14        7     2015  Parnassus_TomatoGDDCRO_ClayLoam_S1_rainfed.PRM
  Tot(27)        1        5     2016    214.5    425.9   1510.7   404.21      0.0    210.7      3.8      0.0      0.0    139.5       64    204.5    203.9       83     0.000     0.000     0.000     0.000       72        0        0        0        0        9       11     7.140       81     53.5    3.823     1.11       13        7     2016  Parnassus_TomatoGDDCRO_ClayLoam_S1_rainfed.PRM
  Tot(28)        1        5     2017    352.7    390.6   1516.1   406.21      0.0    277.6     75.1     46.0      0.0    126.3       65    216.0    214.7       94     0.000     0.000     0.000     0.000       73        0        0        0        0       21        4     8.091       91     57.0    4.608     1.35       14        7     2017  Parnassus_TomatoGDDCRO_ClayLoam_S1_rainfed.PRM
  Tot(29)        1        5     2018    220.7    400.7   1526.7   408.21      0.0    206.0     14.7     16.4      0.0    148.6       77    183.5    185.4       76     0.000     0.000     0.000     0.000       74        0        0        0        0       34       17     6.892       76     52.1    3.590     1.08       15        7     2018  Parnassus_TomatoGDDCRO_ClayLoam_S1_rainfed.PRM
