AquaCrop 6.0 (March 2017) - Output created on (date) : 3/5/2021   at (time) : 3:55:34 PM

    RunNr     Day1   Month1    Year1     Rain      ETo       GD     CO2      Irri   Infilt   Runoff    Drain   Upflow        E     E/Ex       Tr      TrW   Tr/Trx    SaltIn   SaltOut    SaltUp  SaltProf     Cycle   SaltStr  FertStr  WeedStr  TempStr   ExpStr   StoStr  BioMass  Brelative   HI     Yield     WPet     DayN   MonthN    YearN
                                           mm       mm    °C.day    ppm        mm       mm       mm       mm       mm       mm        %       mm       mm        %    ton/ha    ton/ha    ton/ha    ton/ha      days       %        %        %        %        %        %    ton/ha        %       %    ton/ha    kg/m3
   Tot(1)       31       10     1990    193.9    490.9   1735.7   355.00      0.0    193.5      0.4     32.0      0.0    156.2       51    105.4    105.4       63     0.000     0.000     0.000     0.000       84        0        0        0        0       40       28     3.378       41     23.3    0.788     0.30       13        2     1991  Parnassus_GroundnutGDDCRO_Sand_S2_rainfed.PRM
   Tot(2)       31       10     1991    102.3    497.0   1733.8   356.03      0.0    100.8      1.5     19.8      0.0     93.3       27     84.3     84.3       61     0.000     0.000     0.000     0.000       78        0        0        0        0       44       30     2.674       32     21.2    0.567     0.35       13        2     1992  Parnassus_GroundnutGDDCRO_Sand_S2_rainfed.PRM
   Tot(3)       31       10     1992    103.8    516.7   1723.7   356.27      0.0    103.8      0.0      0.0      0.0     80.1       25    116.0    114.9       53     0.000     0.000     0.000     0.000       98        0        0        0        0       48       34     3.429       43     26.5    0.909     0.46       11        2     1993  Parnassus_GroundnutGDDCRO_Sand_S2_rainfed.PRM
   Tot(4)       31       10     1993    168.5    503.2   1730.5   357.47      0.0    163.6      4.9     34.1      0.0    107.1       37    125.6    126.8       54     0.000     0.000     0.000     0.000       99        0        0        0        0       40       34     4.092       50     26.5    1.084     0.47       12        2     1994  Parnassus_GroundnutGDDCRO_Sand_S2_rainfed.PRM
   Tot(5)       31       10     1994    161.9    499.9   1728.9   359.82      0.0    156.8      5.1     42.9      0.0    126.7       37     84.1     84.1       58     0.000     0.000     0.000     0.000       80        0        0        0        0       48       32     2.631       32     22.3    0.586     0.30       12        2     1995  Parnassus_GroundnutGDDCRO_Sand_S2_rainfed.PRM
   Tot(6)       31       10     1995    106.4    510.0   1726.9   361.72      0.0    106.4      0.0      0.0      0.0    119.7       36     85.5     85.5       48     0.000     0.000     0.000     0.000       93        0        0        0        0       52       42     2.725       33     26.5    0.722     0.36       11        2     1996  Parnassus_GroundnutGDDCRO_Sand_S2_rainfed.PRM
   Tot(7)       31       10     1996    190.5    515.1   1749.4   363.17      0.0    185.6      4.9     66.3      0.0    124.5       36     93.0     93.0       58     0.000     0.000     0.000     0.000       84        0        0        0        0       47       33     2.811       33     23.3    0.656     0.31       15        2     1997  Parnassus_GroundnutGDDCRO_Sand_S2_rainfed.PRM
   Tot(8)       31       10     1997    151.6    485.5   1716.1   365.22      0.0    151.6      0.0      0.0      0.0    113.1       40    137.7    137.3       61     0.000     0.000     0.000     0.000       97        0        0        0        0       41       27     4.441       54     26.5    1.177     0.47       10        2     1998  Parnassus_GroundnutGDDCRO_Sand_S2_rainfed.PRM
   Tot(9)       31       10     1998    275.0    485.8   1745.3   367.54      0.0    260.9     14.1     81.3      0.0    131.9       49    151.6    152.0       66     0.000     0.000     0.000     0.000       99        0        0        0        0       15       25     5.187       62     26.5    1.375     0.49       13        2     1999  Parnassus_GroundnutGDDCRO_Sand_S2_rainfed.PRM
  Tot(10)       31       10     1999    189.8    504.5   1738.6   368.97      0.0    186.3      3.5     61.9      0.0    128.7       40     95.0     95.0       53     0.000     0.000     0.000     0.000      105        0        0        0        0       49       42     3.239       36     26.5    0.858     0.38       19        2     2000  Parnassus_GroundnutGDDCRO_Sand_S2_rainfed.PRM
  Tot(11)       31       10     2000    323.5    476.7   1732.7   370.35      0.0    303.1     20.4    102.1      0.0    108.3       42    197.4    197.3       80     0.000     0.000     0.000     0.000      102        0        0        0        0        0       13     7.189       82     26.5    1.905     0.62       15        2     2001  Parnassus_GroundnutGDDCRO_Sand_S2_rainfed.PRM
  Tot(12)       31       10     2001    317.4    466.0   1737.2   372.21      0.0    296.3     21.1     97.4      0.0    127.8       51    175.9    176.0       75     0.000     0.000     0.000     0.000      100        0        0        0        0       10       18     6.249       74     26.5    1.656     0.55       13        2     2002  Parnassus_GroundnutGDDCRO_Sand_S2_rainfed.PRM
  Tot(13)       31       10     2002    186.4    476.6   1720.3   374.54      0.0    183.1      3.3      0.0      0.0    104.7       39    176.0    174.8       73     0.000     0.000     0.000     0.000       97        0        0        0        0       33       18     5.900       71     26.5    1.564     0.56       10        2     2003  Parnassus_GroundnutGDDCRO_Sand_S2_rainfed.PRM
  Tot(14)       31       10     2003    224.4    504.3   1718.7   376.66      0.0    222.3      2.1     25.7      0.0    137.0       49    164.2    165.4       69     0.000     0.000     0.000     0.000       98        0        0        0        0       14       26     5.363       63     26.5    1.421     0.47       11        2     2004  Parnassus_GroundnutGDDCRO_Sand_S2_rainfed.PRM
  Tot(15)       31       10     2004    125.6    545.9   1726.8   378.66      0.0    125.6      0.0      0.0      0.0     94.8       30    133.5    133.5       54     0.000     0.000     0.000     0.000      101        0        0        0        0       43       33     4.440       50     26.5    1.177     0.52       14        2     2005  Parnassus_GroundnutGDDCRO_Sand_S2_rainfed.PRM
  Tot(16)       31       10     2005    231.6    469.8   1739.5   380.85      0.0    231.0      0.6     11.6      0.0    130.4       51    186.9    186.9       77     0.000     0.000     0.000     0.000      100        0        0        0        0        6       14     6.890       79     26.5    1.826     0.58       14        2     2006  Parnassus_GroundnutGDDCRO_Sand_S2_rainfed.PRM
  Tot(17)       31       10     2006    158.9    493.9   1710.2   382.85      0.0    158.4      0.5     36.3      0.0    124.6       38     91.4     91.4       60     0.000     0.000     0.000     0.000       79        0        0        0        0       43       29     2.974       36     22.3    0.662     0.32        8        2     2007  Parnassus_GroundnutGDDCRO_Sand_S2_rainfed.PRM
  Tot(18)       31       10     2007    296.3    482.9   1746.1   384.70      0.0    263.2     33.1    116.1      0.0    119.3       44    130.9    130.9       59     0.000     0.000     0.000     0.000      100        0        0        0        0       38       33     4.616       52     26.5    1.223     0.49       14        2     2008  Parnassus_GroundnutGDDCRO_Sand_S2_rainfed.PRM
  Tot(19)       31       10     2008    174.1    487.5   1735.1   386.51      0.0    167.4      6.7     62.0      0.0    116.1       37     88.9     88.9       54     0.000     0.000     0.000     0.000       98        0        0        0        0       51       41     3.055       34     26.5    0.810     0.40       14        2     2009  Parnassus_GroundnutGDDCRO_Sand_S2_rainfed.PRM
  Tot(20)       31       10     2009    163.6    475.3   1707.3   388.66      0.0    155.9      7.7     15.9      0.0     69.9       26    174.7    174.6       75     0.000     0.000     0.000     0.000       97        0        0        0        0       11       19     6.251       73     26.5    1.656     0.68       10        2     2010  Parnassus_GroundnutGDDCRO_Sand_S2_rainfed.PRM
  Tot(21)       31       10     2010    158.5    486.7   1747.6   390.77      0.0    157.7      0.8     21.6      0.0    105.1       36    134.5    134.5       69     0.000     0.000     0.000     0.000       97        0        0        0        0       37       26     5.061       55     26.5    1.341     0.58       18        2     2011  Parnassus_GroundnutGDDCRO_Sand_S2_rainfed.PRM
  Tot(22)       31       10     2011     66.4    501.5   1721.4   392.75      0.0     66.4      0.0      0.0      0.0     80.7       23     81.9     81.9       61     0.000     0.000     0.000     0.000       77        0        0        0        0       46       30     2.738       31     21.2    0.580     0.38       11        2     2012  Parnassus_GroundnutGDDCRO_Sand_S2_rainfed.PRM
  Tot(23)       31       10     2012     90.4    489.3   1724.0   395.19      0.0     90.4      0.0      4.9      0.0     95.0       29     87.7     87.7       60     0.000     0.000     0.000     0.000       79        0        0        0        0       43       29     3.057       35     22.3    0.681     0.38       11        2     2013  Parnassus_GroundnutGDDCRO_Sand_S2_rainfed.PRM
  Tot(24)       31       10     2013    122.3    477.4   1719.0   397.58      0.0    122.3      0.0      7.4      0.0     99.7       36    116.1    116.1       53     0.000     0.000     0.000     0.000       96        0        0        0        0       43       35     4.005       46     26.5    1.061     0.49        9        2     2014  Parnassus_GroundnutGDDCRO_Sand_S2_rainfed.PRM
  Tot(25)       31       10     2014    160.9    467.7   1719.9   399.74      0.0    160.3      0.6      0.3      0.0    118.5       45    144.6    144.5       65     0.000     0.000     0.000     0.000       97        0        0        0        0       17       28     5.223       60     26.5    1.384     0.53       10        2     2015  Parnassus_GroundnutGDDCRO_Sand_S2_rainfed.PRM
  Tot(26)       31       10     2015    193.2    454.3   1719.8   402.52      0.0    192.8      0.4      6.9      0.0    167.0       64    121.3    121.4       59     0.000     0.000     0.000     0.000       96        0        0        0        0       40       33     4.429       51     26.5    1.174     0.41        9        2     2016  Parnassus_GroundnutGDDCRO_Sand_S2_rainfed.PRM
  Tot(27)       31       10     2016    170.3    467.5   1715.0   405.21      0.0    169.1      1.2     33.2      0.0    137.7       46     98.0     98.0       61     0.000     0.000     0.000     0.000       84        0        0        0        0       43       30     3.614       41     24.4    0.881     0.38       10        2     2017  Parnassus_GroundnutGDDCRO_Sand_S2_rainfed.PRM
  Tot(28)       31       10     2017    435.1    411.7   1735.3   407.21      0.0    421.8     13.3    115.6      0.0    161.9       76    221.2    217.8      100     0.000     0.000     0.000     0.000       99        0        0        0        0        1        0     9.123      100     25.3    2.310     0.60       12        2     2018  Parnassus_GroundnutGDDCRO_Sand_S2_rainfed.PRM
  Tot(29)       31       10     2018     75.0    473.1   1716.0   409.21      0.0     75.0      0.0      0.0      0.0     78.2       25     92.4     95.7       62     0.000     0.000     0.000     0.000       82        0        0        0        0       46       31     3.318       37     23.3    0.774     0.51       10        2     2019  Parnassus_GroundnutGDDCRO_Sand_S2_rainfed.PRM
