AquaCrop 6.0 (March 2017) - Output created on (date) : 3/5/2021   at (time) : 4:02:04 PM

    RunNr     Day1   Month1    Year1     Rain      ETo       GD     CO2      Irri   Infilt   Runoff    Drain   Upflow        E     E/Ex       Tr      TrW   Tr/Trx    SaltIn   SaltOut    SaltUp  SaltProf     Cycle   SaltStr  FertStr  WeedStr  TempStr   ExpStr   StoStr  BioMass  Brelative   HI     Yield     WPet     DayN   MonthN    YearN
                                           mm       mm    °C.day    ppm        mm       mm       mm       mm       mm       mm        %       mm       mm        %    ton/ha    ton/ha    ton/ha    ton/ha      days       %        %        %        %        %        %    ton/ha        %       %    ton/ha    kg/m3
   Tot(1)        1        5     1990    130.3    611.2   1303.9   354.39      0.0    130.2      0.1      0.0      0.0     88.5       37    219.8    219.8       53     0.000     0.000     0.000     0.000       94        0        0        0        0       60       36     7.321       50     38.3    2.802     0.91        9        8     1990  Parnassus_SweetPotatoGDDCRO_Loam_S1_rainfed.PRM
   Tot(2)        1        5     1991    123.7    589.6   1298.3   355.61      0.0    122.7      1.0      8.8      0.0    106.0       50    187.3    187.3       46     0.000     0.000     0.000     0.000       95        0        0        0        0       60       43     6.264       42     30.1    1.884     0.64       10        8     1991  Parnassus_SweetPotatoGDDCRO_Loam_S1_rainfed.PRM
   Tot(3)        1        5     1992    139.4    604.8   1302.7   356.45      0.0    139.4      0.0      0.0      0.0    100.8       47    215.3    215.3       51     0.000     0.000     0.000     0.000       95        0        0        0        0       56       38     7.280       49     32.7    2.383     0.76       10        8     1992  Parnassus_SweetPotatoGDDCRO_Loam_S1_rainfed.PRM
   Tot(4)        1        5     1993    281.3    572.3   1294.6   356.10      0.0    275.7      5.6     40.2      0.0    148.7       87    268.5    268.5       61     0.000     0.000     0.000     0.000       97        0        0        0        0       23       29     9.413       63     39.1    3.681     0.88       12        8     1993  Parnassus_SweetPotatoGDDCRO_Loam_S1_rainfed.PRM
   Tot(5)        1        5     1994    116.2    653.1   1306.7   358.83      0.0    116.2      0.0      0.0      0.0    120.2       45    171.1    171.1       41     0.000     0.000     0.000     0.000       93        0        0        0        0       63       48     5.111       34     27.4    1.400     0.48        8        8     1994  Parnassus_SweetPotatoGDDCRO_Loam_S1_rainfed.PRM
   Tot(6)        1        5     1995    176.3    597.5   1303.6   360.82      0.0    176.2      0.1      6.3      0.0    112.9       48    225.3    225.3       56     0.000     0.000     0.000     0.000       92        0        0        0        0       62       34     7.421       51     38.7    2.870     0.86        7        8     1995  Parnassus_SweetPotatoGDDCRO_Loam_S1_rainfed.PRM
   Tot(7)        1        5     1996    149.1    613.9   1300.0   362.61      0.0    149.1      0.0      0.0      0.0    121.2       48    203.0    203.0       50     0.000     0.000     0.000     0.000       94        0        0        0        0       63       39     6.498       43     34.5    2.242     0.69        9        8     1996  Parnassus_SweetPotatoGDDCRO_Loam_S1_rainfed.PRM
   Tot(8)        1        5     1997    243.7    605.0   1303.0   363.73      0.0    233.1     10.6     46.7      0.0     61.6       28    303.4    303.4       71     0.000     0.000     0.000     0.000       95        0        0        0        0       10       22    10.819       70     46.7    5.050     1.39       10        8     1997  Parnassus_SweetPotatoGDDCRO_Loam_S1_rainfed.PRM
   Tot(9)        1        5     1998    172.5    596.3   1298.0   366.70      0.0    172.2      0.3      0.0      0.0     88.9       37    256.7    256.7       64     0.000     0.000     0.000     0.000       89        0        0        0        0       55       28     8.364       58     45.5    3.804     1.10        4        8     1998  Parnassus_SweetPotatoGDDCRO_Loam_S1_rainfed.PRM
  Tot(10)        1        5     1999    251.3    595.5   1297.7   368.38      0.0    251.2      0.1      0.0      0.0    104.7       54    325.1    325.1       73     0.000     0.000     0.000     0.000       95        0        0        0        0       13       21    11.338       73     44.1    4.998     1.16       10        8     1999  Parnassus_SweetPotatoGDDCRO_Loam_S1_rainfed.PRM
  Tot(11)        1        5     2000    189.4    614.7   1296.4   369.55      0.0    189.4      0.0      0.0      0.0     84.3       39    278.0    278.0       63     0.000     0.000     0.000     0.000       95        0        0        0        0       52       28     9.538       61     40.3    3.847     1.06       10        8     2000  Parnassus_SweetPotatoGDDCRO_Loam_S1_rainfed.PRM
  Tot(12)        1        5     2001    205.3    606.9   1296.5   371.14      0.0    200.3      5.0     30.0      0.0    157.9       66    183.0    183.0       46     0.000     0.000     0.000     0.000       94        0        0        0        0       62       43     6.069       40     29.9    1.813     0.53        9        8     2001  Parnassus_SweetPotatoGDDCRO_Loam_S1_rainfed.PRM
  Tot(13)        1        5     2002    407.0    574.2   1303.4   373.28      0.0    372.6     34.4    198.9      0.0     81.1       42    272.9    272.9       65     0.000     0.000     0.000     0.000       97        0        0        0        0       12       26    10.504       66     42.9    4.505     1.28       12        8     2002  Parnassus_SweetPotatoGDDCRO_Loam_S1_rainfed.PRM
  Tot(14)        1        5     2003    278.2    603.3   1294.3   375.80      0.0    270.3      7.9     24.2      0.0     81.4       41    342.1    340.9       75     0.000     0.000     0.000     0.000       95        0        0        0        0        8       19    11.937       76     45.3    5.403     1.28        8        8     2003  Parnassus_SweetPotatoGDDCRO_Loam_S1_rainfed.PRM
  Tot(15)        1        5     2004    135.0    616.4   1301.3   377.52      0.0    135.0      0.0      0.0      0.0    111.5       44    195.4    196.7       49     0.000     0.000     0.000     0.000       93        0        0        0        0       62       40     6.648       43     33.8    2.249     0.73        8        8     2004  Parnassus_SweetPotatoGDDCRO_Loam_S1_rainfed.PRM
  Tot(16)        1        5     2005    756.7    526.9   1294.9   379.80      0.0    649.3    107.4    236.2      0.0    131.6       77    393.6    393.6      100     0.000     0.000     0.000     0.000       94        0        0        0        0        2        0    15.756      100     53.6    8.450     1.61        8        8     2005  Parnassus_SweetPotatoGDDCRO_Loam_S1_rainfed.PRM
  Tot(17)        1        5     2006    294.0    588.5   1304.5   381.90      0.0    287.1      6.9     22.4      0.0     78.2       39    355.7    355.7       83     0.000     0.000     0.000     0.000       93        0        0        0        0        3       13    13.054       83     49.0    6.402     1.49        8        8     2006  Parnassus_SweetPotatoGDDCRO_Loam_S1_rainfed.PRM
  Tot(18)        1        5     2007    278.6    569.3   1297.8   383.79      0.0    274.0      4.6     41.1      0.0    123.3       72    280.4    280.4       65     0.000     0.000     0.000     0.000       92        0        0        0        0       13       27    10.164       65     39.8    4.041     1.00        7        8     2007  Parnassus_SweetPotatoGDDCRO_Loam_S1_rainfed.PRM
  Tot(19)        1        5     2008    237.2    590.9   1306.3   385.60      0.0    230.1      7.1      0.0      0.0     68.2       34    324.8    324.8       75     0.000     0.000     0.000     0.000       94        0        0        0        0       15       18    12.031       75     49.3    5.932     1.51        9        8     2008  Parnassus_SweetPotatoGDDCRO_Loam_S1_rainfed.PRM
  Tot(20)        1        5     2009    257.1    577.8   1304.1   387.43      0.0    256.0      1.1     20.5      0.0    119.4       64    300.9    300.9       70     0.000     0.000     0.000     0.000       96        0        0        0        0        1       22    11.643       72     42.7    4.972     1.19       11        8     2009  Parnassus_SweetPotatoGDDCRO_Loam_S1_rainfed.PRM
  Tot(21)        1        5     2010    486.8    525.2   1303.3   389.90      0.0    454.2     32.6     57.2      0.0     92.6       53    386.1    386.1       99     0.000     0.000     0.000     0.000       93        0        0        0        0        1        0    15.939      100     53.6    8.543     1.79        7        8     2010  Parnassus_SweetPotatoGDDCRO_Loam_S1_rainfed.PRM
  Tot(22)        1        5     2011    465.1    553.8   1303.1   391.65      0.0    434.3     30.8    108.5      0.0     76.6       39    392.7    392.7       99     0.000     0.000     0.000     0.000       95        0        0        0        0        2        1    16.066       98     56.2    9.025     1.93       10        8     2011  Parnassus_SweetPotatoGDDCRO_Loam_S1_rainfed.PRM
  Tot(23)        1        5     2012    260.8    582.0   1304.4   393.85      0.0    256.6      4.2      0.0      0.0     96.5       48    297.8    297.8       71     0.000     0.000     0.000     0.000       93        0        0        0        0       48       22    11.042       69     43.9    4.851     1.24        8        8     2012  Parnassus_SweetPotatoGDDCRO_Loam_S1_rainfed.PRM
  Tot(24)        1        5     2013    206.0    570.9   1303.4   396.52      0.0    206.0      0.0      0.0      0.0     96.6       51    290.0    290.0       69     0.000     0.000     0.000     0.000       94        0        0        0        0       31       24    11.400       70     43.0    4.897     1.28        9        8     2013  Parnassus_SweetPotatoGDDCRO_Loam_S1_rainfed.PRM
  Tot(25)        1        5     2014    166.3    587.3   1307.3   398.65      0.0    166.1      0.2      4.2      0.0    124.9       58    216.2    216.2       54     0.000     0.000     0.000     0.000       94        0        0        0        0       59       36     8.213       50     35.2    2.894     0.85        9        8     2014  Parnassus_SweetPotatoGDDCRO_Loam_S1_rainfed.PRM
  Tot(26)        1        5     2015    170.5    579.1   1296.0   400.83      0.0    170.4      0.1      0.0      0.0     78.2       40    271.1    271.1       65     0.000     0.000     0.000     0.000       94        0        0        0        0       20       27    10.573       65     42.0    4.442     1.27        8        8     2015  Parnassus_SweetPotatoGDDCRO_Loam_S1_rainfed.PRM
  Tot(27)        1        5     2016    289.2    562.2   1302.7   404.21      0.0    287.8      1.4      1.9      0.0    101.2       56    338.0    338.0       81     0.000     0.000     0.000     0.000       92        0        0        0        0        0       15    13.126       82     47.9    6.282     1.44        6        8     2016  Parnassus_SweetPotatoGDDCRO_Loam_S1_rainfed.PRM
  Tot(28)        1        5     2017    400.3    537.4   1306.8   406.21      0.0    372.2     28.1     86.6      0.0     96.8       58    353.3    353.3       87     0.000     0.000     0.000     0.000       94        0        0        0        0       17        9    14.427       87     50.2    7.241     1.62        9        8     2017  Parnassus_SweetPotatoGDDCRO_Loam_S1_rainfed.PRM
  Tot(29)        1        5     2018    244.0    558.2   1306.7   408.21      0.0    239.8      4.2     32.7      0.0    128.9       74    256.8    256.8       62     0.000     0.000     0.000     0.000       96        0        0        0        0       17       29    10.514       62     40.4    4.249     1.10       11        8     2018  Parnassus_SweetPotatoGDDCRO_Loam_S1_rainfed.PRM
