AquaCrop 6.0 (March 2017) - Output created on (date) : 3/5/2021   at (time) : 3:52:59 PM

    RunNr     Day1   Month1    Year1     Rain      ETo       GD     CO2      Irri   Infilt   Runoff    Drain   Upflow        E     E/Ex       Tr      TrW   Tr/Trx    SaltIn   SaltOut    SaltUp  SaltProf     Cycle   SaltStr  FertStr  WeedStr  TempStr   ExpStr   StoStr  BioMass  Brelative   HI     Yield     WPet     DayN   MonthN    YearN
                                           mm       mm    °C.day    ppm        mm       mm       mm       mm       mm       mm        %       mm       mm        %    ton/ha    ton/ha    ton/ha    ton/ha      days       %        %        %        %        %        %    ton/ha        %       %    ton/ha    kg/m3
   Tot(1)       31        5     1990    120.0    588.8   1685.4   354.39      0.0    120.0      0.0      2.0      0.0    128.7       37    165.5    165.5       63     0.000     0.000     0.000     0.000       91        0        0        0        0       46       30     3.839       53     26.5    1.017     0.35        4        9     1990  Parnassus_GroundnutGDDCRO_Loam_S1_rainfed.PRM
   Tot(2)       31        5     1991     66.2    573.7   1678.6   355.61      0.0     66.2      0.0      0.0      0.0     90.4       25    148.0    148.0       65     0.000     0.000     0.000     0.000       86        0        0        0        0       47       28     3.598       49     26.5    0.954     0.41        4        9     1991  Parnassus_GroundnutGDDCRO_Loam_S1_rainfed.PRM
   Tot(3)       31        5     1992     99.0    586.6   1689.8   356.45      0.0     99.0      0.0      0.0      0.0    110.2       32    161.7    161.6       62     0.000     0.000     0.000     0.000       91        0        0        0        0       46       30     3.826       52     26.5    1.014     0.37        4        9     1992  Parnassus_GroundnutGDDCRO_Loam_S1_rainfed.PRM
   Tot(4)       31        5     1993    138.5    570.5   1694.1   356.10      0.0    137.8      0.7     14.6      0.0    132.1       39    163.4    163.5       67     0.000     0.000     0.000     0.000       92        0        0        0        0       44       29     3.932       53     26.5    1.042     0.35        5        9     1993  Parnassus_GroundnutGDDCRO_Loam_S1_rainfed.PRM
   Tot(5)       31        5     1994     93.9    626.8   1675.2   358.83      0.0     93.9      0.0      0.0      0.0    106.8       28    162.5    162.2       58     0.000     0.000     0.000     0.000       90        0        0        0        0       49       31     3.590       49     26.5    0.951     0.35        3        9     1994  Parnassus_GroundnutGDDCRO_Loam_S1_rainfed.PRM
   Tot(6)       31        5     1995    201.4    563.4   1662.7   360.82      0.0    201.4      0.0      0.0      0.0    151.4       48    225.0    224.4       79     0.000     0.000     0.000     0.000       89        0        0        0        0       34       14     5.640       78     26.5    1.495     0.40        2        9     1995  Parnassus_GroundnutGDDCRO_Loam_S1_rainfed.PRM
   Tot(7)       31        5     1996    135.8    582.1   1668.9   362.61      0.0    135.8      0.0      0.0      0.0    132.4       39    180.1    180.6       65     0.000     0.000     0.000     0.000       90        0        0        0        0       42       24     4.513       61     26.5    1.196     0.38        3        9     1996  Parnassus_GroundnutGDDCRO_Loam_S1_rainfed.PRM
   Tot(8)       31        5     1997    222.2    542.7   1697.1   363.73      0.0    211.7     10.5     51.8      0.0    147.9       49    187.4    187.2       69     0.000     0.000     0.000     0.000       92        0        0        0        0       42       23     4.803       64     26.5    1.273     0.38        5        9     1997  Parnassus_GroundnutGDDCRO_Loam_S1_rainfed.PRM
   Tot(9)       31        5     1998    213.9    558.7   1648.5   366.70      0.0    213.7      0.2      0.0      0.0    138.2       44    235.9    233.6       83     0.000     0.000     0.000     0.000       88        0        0        0        0        2       11     6.000       84     26.5    1.590     0.42       31        8     1998  Parnassus_GroundnutGDDCRO_Loam_S1_rainfed.PRM
  Tot(10)       31        5     1999    229.9    558.6   1682.6   368.38      0.0    229.6      0.3      4.3      0.0    177.8       57    223.4    225.5       78     0.000     0.000     0.000     0.000       91        0        0        0        0       32       15     5.828       77     26.5    1.544     0.38        4        9     1999  Parnassus_GroundnutGDDCRO_Loam_S1_rainfed.PRM
  Tot(11)       31        5     2000    263.7    573.0   1693.2   369.55      0.0    260.4      3.3     18.7      0.0    135.6       43    246.2    243.3       84     0.000     0.000     0.000     0.000       92        0        0        0        0       30       10     6.376       83     26.5    1.690     0.44        5        9     2000  Parnassus_GroundnutGDDCRO_Loam_S1_rainfed.PRM
  Tot(12)       31        5     2001    101.9    587.7   1670.7   371.14      0.0    101.9      0.0      0.0      0.0     99.5       29    177.5    180.2       64     0.000     0.000     0.000     0.000       90        0        0        0        0       43       25     4.488       60     26.5    1.189     0.43        3        9     2001  Parnassus_GroundnutGDDCRO_Loam_S1_rainfed.PRM
  Tot(13)       31        5     2002    200.9    544.3   1687.3   373.28      0.0    195.8      5.1     56.9      0.0    148.3       48    165.1    165.6       64     0.000     0.000     0.000     0.000       92        0        0        0        0       42       26     4.378       57     26.5    1.160     0.37        5        9     2002  Parnassus_GroundnutGDDCRO_Loam_S1_rainfed.PRM
  Tot(14)       31        5     2003    246.4    568.2   1686.7   375.80      0.0    245.3      1.1     15.0      0.0    170.7       54    228.5    227.5       79     0.000     0.000     0.000     0.000       91        0        0        0        0       32       14     6.020       78     26.5    1.595     0.40        4        9     2003  Parnassus_GroundnutGDDCRO_Loam_S1_rainfed.PRM
  Tot(15)       31        5     2004    150.6    590.3   1676.2   377.52      0.0    150.6      0.0      0.0      0.0    112.7       34    213.8    213.5       73     0.000     0.000     0.000     0.000       90        0        0        0        0       40       18     5.393       71     26.5    1.429     0.44        3        9     2004  Parnassus_GroundnutGDDCRO_Loam_S1_rainfed.PRM
  Tot(16)       31        5     2005    637.8    496.3   1700.3   379.80      0.0    535.5    102.3    245.9      0.0    206.8       78    250.5    250.7       95     0.000     0.000     0.000     0.000       92        0        0        0        0        0        3     7.414       95     26.5    1.965     0.43        4        9     2005  Parnassus_GroundnutGDDCRO_Loam_S1_rainfed.PRM
  Tot(17)       31        5     2006    297.1    541.8   1676.0   381.90      0.0    289.1      8.0     68.5      0.0    166.9       57    227.7    228.3       80     0.000     0.000     0.000     0.000       90        0        0        0        0       11       14     6.103       79     26.5    1.617     0.41        3        9     2006  Parnassus_GroundnutGDDCRO_Loam_S1_rainfed.PRM
  Tot(18)       31        5     2007    242.4    550.8   1675.7   383.79      0.0    239.5      2.9      0.1      0.0    133.0       43    257.4    254.8       93     0.000     0.000     0.000     0.000       90        0        0        0        0       25        5     7.101       92     26.5    1.882     0.48        3        9     2007  Parnassus_GroundnutGDDCRO_Loam_S1_rainfed.PRM
  Tot(19)       31        5     2008    496.8    542.8   1685.6   385.60      0.0    420.4     76.4     10.6      0.0    137.3       46    279.4    279.2      100     0.000     0.000     0.000     0.000       91        0        0        0        0        0        0     7.830      100     26.2    2.048     0.49        4        9     2008  Parnassus_GroundnutGDDCRO_Loam_S1_rainfed.PRM
  Tot(20)       31        5     2009    210.1    549.6   1684.5   387.43      0.0    210.1      0.0      0.0      0.0    154.9       52    226.2    229.0       78     0.000     0.000     0.000     0.000       91        0        0        0        0       34       15     6.032       77     26.5    1.598     0.42        4        9     2009  Parnassus_GroundnutGDDCRO_Loam_S1_rainfed.PRM
  Tot(21)       31        5     2010    393.5    496.7   1684.5   389.90      0.0    389.1      4.4     46.5      0.0    188.6       69    255.7    252.7      100     0.000     0.000     0.000     0.000       91        0        0        0        0        0        0     7.853      100     25.2    1.976     0.44        3        9     2010  Parnassus_GroundnutGDDCRO_Loam_S1_rainfed.PRM
  Tot(22)       31        5     2011    528.1    509.7   1702.4   391.65      0.0    494.2     33.9    147.5      0.0    178.1       66    272.2    272.3      100     0.000     0.000     0.000     0.000       92        0        0        0        0        0        0     8.032      100     25.7    2.062     0.46        5        9     2011  Parnassus_GroundnutGDDCRO_Loam_S1_rainfed.PRM
  Tot(23)       31        5     2012    305.7    549.5   1672.1   393.85      0.0    300.0      5.7     13.4      0.0    153.6       50    277.7    277.0      100     0.000     0.000     0.000     0.000       90        0        0        0        0       12        0     7.831       99     26.5    2.075     0.48        3        9     2012  Parnassus_GroundnutGDDCRO_Loam_S1_rainfed.PRM
  Tot(24)       31        5     2013    227.6    531.5   1684.4   396.52      0.0    227.6      0.0      1.6      0.0    142.5       49    247.4    250.0       90     0.000     0.000     0.000     0.000       91        0        0        0        0       20        7     7.176       89     26.5    1.902     0.49        4        9     2013  Parnassus_GroundnutGDDCRO_Loam_S1_rainfed.PRM
  Tot(25)       31        5     2014    183.8    549.0   1671.5   398.65      0.0    179.0      4.8      0.0      0.0    117.5       38    202.1    200.4       74     0.000     0.000     0.000     0.000       90        0        0        0        0       41       17     5.648       71     26.5    1.497     0.47        3        9     2014  Parnassus_GroundnutGDDCRO_Loam_S1_rainfed.PRM
  Tot(26)       31        5     2015    167.7    551.3   1672.0   400.83      0.0    164.7      3.0     23.1      0.0    149.1       48    169.3    172.7       64     0.000     0.000     0.000     0.000       90        0        0        0        0       42       26     4.697       59     26.5    1.245     0.39        3        9     2015  Parnassus_GroundnutGDDCRO_Loam_S1_rainfed.PRM
  Tot(27)       31        5     2016    282.2    530.2   1667.7   404.21      0.0    278.5      3.7     28.9      0.0    161.9       55    245.9    241.6       90     0.000     0.000     0.000     0.000       89        0        0        0        0       14        6     7.175       90     26.5    1.901     0.47        2        9     2016  Parnassus_GroundnutGDDCRO_Loam_S1_rainfed.PRM
  Tot(28)       31        5     2017    271.4    520.2   1676.3   406.21      0.0    263.3      8.1     77.9      0.0    152.3       53    208.4    212.3       78     0.000     0.000     0.000     0.000       90        0        0        0        0       30       15     6.185       77     26.5    1.639     0.45        3        9     2017  Parnassus_GroundnutGDDCRO_Loam_S1_rainfed.PRM
  Tot(29)       31        5     2018    131.9    546.7   1682.8   408.21      0.0    131.9      0.0      0.0      0.0    146.6       46    158.2    158.8       65     0.000     0.000     0.000     0.000       91        0        0        0        0       44       28     4.491       55     26.5    1.190     0.39        4        9     2018  Parnassus_GroundnutGDDCRO_Loam_S1_rainfed.PRM
