AquaCrop 6.0 (March 2017) - Output created on (date) : 3/5/2021   at (time) : 4:13:07 PM

    RunNr     Day1   Month1    Year1     Rain      ETo       GD     CO2      Irri   Infilt   Runoff    Drain   Upflow        E     E/Ex       Tr      TrW   Tr/Trx    SaltIn   SaltOut    SaltUp  SaltProf     Cycle   SaltStr  FertStr  WeedStr  TempStr   ExpStr   StoStr  BioMass  Brelative   HI     Yield     WPet     DayN   MonthN    YearN
                                           mm       mm    °C.day    ppm        mm       mm       mm       mm       mm       mm        %       mm       mm        %    ton/ha    ton/ha    ton/ha    ton/ha      days       %        %        %        %        %        %    ton/ha        %       %    ton/ha    kg/m3
   Tot(1)       31        5     1990     98.3    447.1   1504.3   354.39      0.0     98.3      0.0      0.0      0.0    103.1       37    107.8    107.7       55     0.000     0.000     0.000     0.000       72        0        0        0        0       55       34     3.081       39     45.6    1.405     0.67       12        8     1990  Parnassus_TomatoGDDCRO_SandyLoam_S1_rainfed.PRM
   Tot(2)       31        5     1991     41.1    442.2   1520.2   355.61      0.0     41.1      0.0      0.0      0.0     63.1       20     89.3     89.3       58     0.000     0.000     0.000     0.000       73        0        0        0        0       60       32     2.664       33     48.8    1.301     0.85       13        8     1991  Parnassus_TomatoGDDCRO_SandyLoam_S1_rainfed.PRM
   Tot(3)       31        5     1992     80.1    442.4   1508.4   356.45      0.0     80.1      0.0      0.0      0.0     93.2       31     98.8     98.8       56     0.000     0.000     0.000     0.000       72        0        0        0        0       58       34     2.866       36     45.9    1.316     0.69       12        8     1992  Parnassus_TomatoGDDCRO_SandyLoam_S1_rainfed.PRM
   Tot(4)       31        5     1993    110.0    432.2   1519.6   356.10      0.0    109.3      0.7     14.6      0.0    108.1       38     99.4     99.3       55     0.000     0.000     0.000     0.000       73        0        0        0        0       59       34     2.945       37     48.0    1.414     0.68       13        8     1993  Parnassus_TomatoGDDCRO_SandyLoam_S1_rainfed.PRM
   Tot(5)       31        5     1994     63.2    491.3   1511.7   358.83      0.0     63.2      0.0      0.0      0.0     86.4       21     80.4     80.2       66     0.000     0.000     0.000     0.000       72        0        0        0        0       66       26     2.100       26     50.4    1.058     0.63       12        8     1994  Parnassus_TomatoGDDCRO_SandyLoam_S1_rainfed.PRM
   Tot(6)       31        5     1995    158.5    431.8   1496.4   360.82      0.0    158.5      0.0      0.0      0.0    150.9       49    102.5    101.8       64     0.000     0.000     0.000     0.000       71        0        0        0        0       61       26     3.026       39     47.8    1.447     0.57       11        8     1995  Parnassus_TomatoGDDCRO_SandyLoam_S1_rainfed.PRM
   Tot(7)       31        5     1996     99.5    456.5   1508.3   362.61      0.0     99.5      0.0      0.0      0.0    119.4       34     87.8     88.7       62     0.000     0.000     0.000     0.000       72        0        0        0        0       63       28     2.549       32     49.1    1.252     0.60       12        8     1996  Parnassus_TomatoGDDCRO_SandyLoam_S1_rainfed.PRM
   Tot(8)       31        5     1997    188.1    418.7   1521.1   363.73      0.0    177.6     10.5     51.7      0.0    128.5       50    107.6    107.4       55     0.000     0.000     0.000     0.000       73        0        0        0        0       56       34     3.359       41     48.1    1.617     0.69       13        8     1997  Parnassus_TomatoGDDCRO_SandyLoam_S1_rainfed.PRM
   Tot(9)       31        5     1998    141.0    439.7   1489.9   366.70      0.0    140.8      0.2      0.0      0.0    110.6       42    142.0    141.9       66     0.000     0.000     0.000     0.000       70        0        0        0        0       47       22     4.253       54     48.3    2.052     0.81       10        8     1998  Parnassus_TomatoGDDCRO_SandyLoam_S1_rainfed.PRM
  Tot(10)       31        5     1999    167.5    436.3   1519.3   368.38      0.0    167.2      0.3      4.3      0.0    134.5       56    140.8    141.0       61     0.000     0.000     0.000     0.000       73        0        0        0        0       46       27     4.490       54     49.2    2.212     0.80       13        8     1999  Parnassus_TomatoGDDCRO_SandyLoam_S1_rainfed.PRM
  Tot(11)       31        5     2000    159.9    440.4   1516.9   369.55      0.0    158.5      1.4     18.7      0.0    121.2       41    124.9    124.5       66     0.000     0.000     0.000     0.000       73        0        0        0        0       56       24     3.783       46     49.9    1.887     0.77       13        8     2000  Parnassus_TomatoGDDCRO_SandyLoam_S1_rainfed.PRM
  Tot(12)       31        5     2001     65.5    454.1   1503.5   371.14      0.0     65.5      0.0      0.0      0.0     85.9       23     82.1     82.4       67     0.000     0.000     0.000     0.000       72        0        0        0        0       65       25     2.405       29     50.8    1.221     0.73       12        8     2001  Parnassus_TomatoGDDCRO_SandyLoam_S1_rainfed.PRM
  Tot(13)       31        5     2002    160.1    420.5   1530.3   373.28      0.0    155.0      5.1     56.6      0.0    113.6       41     96.7     97.1       57     0.000     0.000     0.000     0.000       74        0        0        0        0       59       35     3.053       36     47.6    1.452     0.69       14        8     2002  Parnassus_TomatoGDDCRO_SandyLoam_S1_rainfed.PRM
  Tot(14)       31        5     2003    175.1    436.9   1504.5   375.80      0.0    174.1      1.0     13.5      0.0    137.1       54    135.2    134.8       61     0.000     0.000     0.000     0.000       72        0        0        0        0       48       27     4.280       52     47.9    2.052     0.75       12        8     2003  Parnassus_TomatoGDDCRO_SandyLoam_S1_rainfed.PRM
  Tot(15)       31        5     2004    126.0    453.4   1510.5   377.52      0.0    126.0      0.0      0.0      0.0    112.7       31     86.3     85.2       67     0.000     0.000     0.000     0.000       72        0        0        0        0       65       25     2.587       31     50.7    1.311     0.66       12        8     2004  Parnassus_TomatoGDDCRO_SandyLoam_S1_rainfed.PRM
  Tot(16)       31        5     2005    578.5    378.7   1517.3   379.80      0.0    481.8     96.7    238.3      0.0    141.0       80    204.5    204.7       87     0.000     0.000     0.000     0.000       72        0        0        0        0        1        9     7.318       87     53.8    3.938     1.14       12        8     2005  Parnassus_TomatoGDDCRO_SandyLoam_S1_rainfed.PRM
  Tot(17)       31        5     2006    250.6    418.0   1511.5   381.90      0.0    242.6      8.0     68.5      0.0    150.4       59    131.2    131.9       65     0.000     0.000     0.000     0.000       72        0        0        0        0       52       26     4.197       50     49.0    2.059     0.73       12        8     2006  Parnassus_TomatoGDDCRO_SandyLoam_S1_rainfed.PRM
  Tot(18)       31        5     2007    168.7    431.2   1492.9   383.79      0.0    165.9      2.8      0.1      0.0    117.7       40    104.3    104.2       61     0.000     0.000     0.000     0.000       71        0        0        0        0       60       29     3.213       39     47.1    1.514     0.68       11        8     2007  Parnassus_TomatoGDDCRO_SandyLoam_S1_rainfed.PRM
  Tot(19)       31        5     2008    190.0    424.7   1504.3   385.60      0.0    185.2      4.8      1.5      0.0    115.3       47    166.8    166.1       77     0.000     0.000     0.000     0.000       72        0        0        0        0       46       16     5.342       63     52.8    2.820     1.00       12        8     2008  Parnassus_TomatoGDDCRO_SandyLoam_S1_rainfed.PRM
  Tot(20)       31        5     2009    134.3    422.7   1524.1   387.43      0.0    134.3      0.0      0.0      0.0    117.4       54    132.4    133.8       58     0.000     0.000     0.000     0.000       73        0        0        0        0       46       32     4.346       51     47.0    2.042     0.82       13        8     2009  Parnassus_TomatoGDDCRO_SandyLoam_S1_rainfed.PRM
  Tot(21)       31        5     2010    311.9    381.0   1519.2   389.90      0.0    307.8      4.1     34.6      0.0    118.7       61    220.7    216.7      100     0.000     0.000     0.000     0.000       72        0        0        0        0        4        0     8.368       97     55.7    4.659     1.37       12        8     2010  Parnassus_TomatoGDDCRO_SandyLoam_S1_rainfed.PRM
  Tot(22)       31        5     2011    425.5    387.0   1523.6   391.65      0.0    392.7     32.8    143.9      0.0    124.7       69    215.6    217.5       90     0.000     0.000     0.000     0.000       73        0        0        0        0       25        7     7.699       89     56.2    4.326     1.27       13        8     2011  Parnassus_TomatoGDDCRO_SandyLoam_S1_rainfed.PRM
  Tot(23)       31        5     2012    235.4    426.4   1509.8   393.85      0.0    229.7      5.7     11.0      0.0    124.6       51    155.7    154.4       71     0.000     0.000     0.000     0.000       72        0        0        0        0       49       19     5.260       61     51.0    2.682     0.96       12        8     2012  Parnassus_TomatoGDDCRO_SandyLoam_S1_rainfed.PRM
  Tot(24)       31        5     2013    132.0    411.4   1505.7   396.52      0.0    132.0      0.0      1.6      0.0    102.4       47    138.1    140.9       62     0.000     0.000     0.000     0.000       72        0        0        0        0       44       26     4.812       56     47.8    2.301     0.96       12        8     2013  Parnassus_TomatoGDDCRO_SandyLoam_S1_rainfed.PRM
  Tot(25)       31        5     2014     83.9    429.0   1504.7   398.65      0.0     83.9      0.0      0.0      0.0     99.0       34     94.1     94.7       57     0.000     0.000     0.000     0.000       72        0        0        0        0       59       33     3.105       36     46.8    1.452     0.75       12        8     2014  Parnassus_TomatoGDDCRO_SandyLoam_S1_rainfed.PRM
  Tot(26)       31        5     2015    137.6    419.2   1504.2   400.83      0.0    134.7      2.9     23.1      0.0    126.0       45     97.6     97.7       57     0.000     0.000     0.000     0.000       72        0        0        0        0       59       33     3.333       38     46.7    1.558     0.70       12        8     2015  Parnassus_TomatoGDDCRO_SandyLoam_S1_rainfed.PRM
  Tot(27)       31        5     2016    209.3    409.8   1498.1   404.21      0.0    205.6      3.7     28.9      0.0    144.7       59    129.2    128.3       64     0.000     0.000     0.000     0.000       71        0        0        0        0       51       26     4.370       51     47.7    2.086     0.76       11        8     2016  Parnassus_TomatoGDDCRO_SandyLoam_S1_rainfed.PRM
  Tot(28)       31        5     2017    227.6    402.3   1510.7   406.21      0.0    220.0      7.6     76.6      0.0    119.4       54    134.0    134.5       64     0.000     0.000     0.000     0.000       72        0        0        0        0       48       25     4.879       55     48.4    2.360     0.93       12        8     2017  Parnassus_TomatoGDDCRO_SandyLoam_S1_rainfed.PRM
  Tot(29)       31        5     2018     98.2    416.3   1520.5   408.21      0.0     98.2      0.0      0.0      0.0    113.4       44     98.3     98.8       55     0.000     0.000     0.000     0.000       73        0        0        0        0       56       35     3.503       39     46.7    1.635     0.77       13        8     2018  Parnassus_TomatoGDDCRO_SandyLoam_S1_rainfed.PRM
