AquaCrop 6.0 (March 2017) - Output created on (date) : 3/5/2021   at (time) : 3:57:23 PM

    RunNr     Day1   Month1    Year1     Rain      ETo       GD     CO2      Irri   Infilt   Runoff    Drain   Upflow        E     E/Ex       Tr      TrW   Tr/Trx    SaltIn   SaltOut    SaltUp  SaltProf     Cycle   SaltStr  FertStr  WeedStr  TempStr   ExpStr   StoStr  BioMass  Brelative   HI     Yield     WPet     DayN   MonthN    YearN
                                           mm       mm    °C.day    ppm        mm       mm       mm       mm       mm       mm        %       mm       mm        %    ton/ha    ton/ha    ton/ha    ton/ha      days       %        %        %        %        %        %    ton/ha        %       %    ton/ha    kg/m3
   Tot(1)       31       10     1990    193.9    490.9   1735.7   355.00      0.0    193.7      0.2     26.9      0.0    162.5       65    183.4    183.4       71     0.000     0.000     0.000     0.000      100        0        0        0        0        8       22     5.623       69     26.5    1.490     0.43       13        2     1991  Parnassus_GroundnutGDDCRO_SandyLoam_S2_rainfed.PRM
   Tot(2)       31       10     1991    102.3    497.0   1733.8   356.03      0.0    101.0      1.3     14.6      0.0    102.0       36    160.3    160.3       69     0.000     0.000     0.000     0.000      100        0        0        0        0       39       26     5.077       62     26.5    1.345     0.51       13        2     1992  Parnassus_GroundnutGDDCRO_SandyLoam_S2_rainfed.PRM
   Tot(3)       31       10     1992    103.8    516.7   1723.7   356.27      0.0    103.8      0.0      0.0      0.0     78.8       27    195.8    193.8       75     0.000     0.000     0.000     0.000       98        0        0        0        0       42       17     5.791       72     26.5    1.535     0.56       11        2     1993  Parnassus_GroundnutGDDCRO_SandyLoam_S2_rainfed.PRM
   Tot(4)       31       10     1993    168.5    503.2   1730.5   357.47      0.0    164.3      4.2     28.5      0.0    115.1       43    199.8    201.5       76     0.000     0.000     0.000     0.000       99        0        0        0        0        4       16     6.324       78     26.5    1.676     0.53       12        2     1994  Parnassus_GroundnutGDDCRO_SandyLoam_S2_rainfed.PRM
   Tot(5)       31       10     1994    161.9    499.9   1728.9   359.82      0.0    158.2      3.7     40.1      0.0    132.9       49    164.9    165.1       65     0.000     0.000     0.000     0.000       99        0        0        0        0       40       26     5.046       61     26.5    1.337     0.45       12        2     1995  Parnassus_GroundnutGDDCRO_SandyLoam_S2_rainfed.PRM
   Tot(6)       31       10     1995    106.4    510.0   1726.9   361.72      0.0    106.4      0.0      0.0      0.0    118.9       42    165.4    165.4       66     0.000     0.000     0.000     0.000       98        0        0        0        0       39       26     5.058       62     26.5    1.340     0.47       11        2     1996  Parnassus_GroundnutGDDCRO_SandyLoam_S2_rainfed.PRM
   Tot(7)       31       10     1996    190.5    515.1   1749.4   363.17      0.0    185.9      4.6     61.0      0.0    133.0       47    170.1    170.2       69     0.000     0.000     0.000     0.000      101        0        0        0        0       40       26     5.169       61     26.5    1.370     0.45       15        2     1997  Parnassus_GroundnutGDDCRO_SandyLoam_S2_rainfed.PRM
   Tot(8)       31       10     1997    151.6    485.5   1716.1   365.22      0.0    151.6      0.0      0.0      0.0    114.7       44    214.3    213.9       83     0.000     0.000     0.000     0.000       97        0        0        0        0        5       11     6.828       84     26.5    1.809     0.55       10        2     1998  Parnassus_GroundnutGDDCRO_SandyLoam_S2_rainfed.PRM
   Tot(9)       31       10     1998    275.0    485.8   1745.3   367.54      0.0    260.8     14.2     72.1      0.0    140.4       55    222.7    223.2       86     0.000     0.000     0.000     0.000       99        0        0        0        0        0        9     7.378       88     26.5    1.955     0.54       13        2     1999  Parnassus_GroundnutGDDCRO_SandyLoam_S2_rainfed.PRM
  Tot(10)       31       10     1999    189.8    504.5   1738.6   368.97      0.0    186.4      3.4     57.4      0.0    134.7       50    175.0    175.0       67     0.000     0.000     0.000     0.000      105        0        0        0        0       37       24     5.790       65     26.5    1.534     0.50       19        2     2000  Parnassus_GroundnutGDDCRO_SandyLoam_S2_rainfed.PRM
  Tot(11)       31       10     2000    323.5    476.7   1732.7   370.35      0.0    303.8     19.7     94.9      0.0    118.3       46    247.2    244.6       99     0.000     0.000     0.000     0.000      102        0        0        0        0        0        1     8.653       99     25.7    2.220     0.61       15        2     2001  Parnassus_GroundnutGDDCRO_SandyLoam_S2_rainfed.PRM
  Tot(12)       31       10     2001    317.4    466.0   1737.2   372.21      0.0    296.9     20.5     97.5      0.0    134.9       55    234.0    235.4       94     0.000     0.000     0.000     0.000      100        0        0        0        0        0        4     8.000       94     26.5    2.120     0.57       13        2     2002  Parnassus_GroundnutGDDCRO_SandyLoam_S2_rainfed.PRM
  Tot(13)       31       10     2002    186.4    476.6   1720.3   374.54      0.0    184.8      1.6      0.0      0.0    108.5       42    238.9    238.1       95     0.000     0.000     0.000     0.000       97        0        0        0        0        6        4     7.910       95     26.5    2.096     0.60       10        2     2003  Parnassus_GroundnutGDDCRO_SandyLoam_S2_rainfed.PRM
  Tot(14)       31       10     2003    224.4    504.3   1718.7   376.66      0.0    222.5      1.9     24.1      0.0    146.1       55    228.2    229.6       84     0.000     0.000     0.000     0.000       98        0        0        0        0        0       10     7.350       86     26.5    1.948     0.52       11        2     2004  Parnassus_GroundnutGDDCRO_SandyLoam_S2_rainfed.PRM
  Tot(15)       31       10     2004    125.6    545.9   1726.8   378.66      0.0    125.6      0.0      0.0      0.0     99.3       33    206.3    206.7       75     0.000     0.000     0.000     0.000      101        0        0        0        0        4       17     6.679       76     26.5    1.770     0.58       14        2     2005  Parnassus_GroundnutGDDCRO_SandyLoam_S2_rainfed.PRM
  Tot(16)       31       10     2005    231.6    469.8   1739.5   380.85      0.0    231.5      0.1      4.7      0.0    142.0       56    240.5    240.7       98     0.000     0.000     0.000     0.000      100        0        0        0        0        0        1     8.584       98     26.5    2.275     0.60       14        2     2006  Parnassus_GroundnutGDDCRO_SandyLoam_S2_rainfed.PRM
  Tot(17)       31       10     2006    158.9    493.9   1710.2   382.85      0.0    158.4      0.5     30.3      0.0    131.4       49    171.0    169.8       70     0.000     0.000     0.000     0.000       96        0        0        0        0       19       22     5.349       65     26.5    1.418     0.47        8        2     2007  Parnassus_GroundnutGDDCRO_SandyLoam_S2_rainfed.PRM
  Tot(18)       31       10     2007    296.3    482.9   1746.1   384.70      0.0    263.1     33.2    114.7      0.0    128.3       51    198.9    200.0       78     0.000     0.000     0.000     0.000      100        0        0        0        0        1       15     6.894       78     26.5    1.827     0.56       14        2     2008  Parnassus_GroundnutGDDCRO_SandyLoam_S2_rainfed.PRM
  Tot(19)       31       10     2008    174.1    487.5   1735.1   386.51      0.0    167.2      6.9     61.6      0.0    119.4       46    165.1    165.0       67     0.000     0.000     0.000     0.000      101        0        0        0        0       39       25     5.640       63     26.5    1.495     0.53       14        2     2009  Parnassus_GroundnutGDDCRO_SandyLoam_S2_rainfed.PRM
  Tot(20)       31       10     2009    163.6    475.3   1707.3   388.66      0.0    157.2      6.4      9.2      0.0     77.4       30    237.0    235.7       96     0.000     0.000     0.000     0.000       97        0        0        0        0        0        3     8.229       96     26.5    2.181     0.69       10        2     2010  Parnassus_GroundnutGDDCRO_SandyLoam_S2_rainfed.PRM
  Tot(21)       31       10     2010    158.5    486.7   1747.6   390.77      0.0    157.9      0.6     15.0      0.0    116.0       45    203.6    205.0       80     0.000     0.000     0.000     0.000      104        0        0        0        0        1       13     7.525       81     26.5    1.994     0.63       18        2     2011  Parnassus_GroundnutGDDCRO_SandyLoam_S2_rainfed.PRM
  Tot(22)       31       10     2011     66.4    501.5   1721.4   392.75      0.0     66.4      0.0      0.0      0.0     85.8       30    158.5    158.4       68     0.000     0.000     0.000     0.000       98        0        0        0        0       41       26     5.315       61     26.5    1.409     0.58       11        2     2012  Parnassus_GroundnutGDDCRO_SandyLoam_S2_rainfed.PRM
  Tot(23)       31       10     2012     90.4    489.3   1724.0   395.19      0.0     90.4      0.0      2.4      0.0    103.3       38    162.5    162.5       69     0.000     0.000     0.000     0.000       98        0        0        0        0       38       25     5.486       63     26.5    1.454     0.55       11        2     2013  Parnassus_GroundnutGDDCRO_SandyLoam_S2_rainfed.PRM
  Tot(24)       31       10     2013    122.3    477.4   1719.0   397.58      0.0    122.2      0.1      5.9      0.0    103.7       41    190.3    190.0       76     0.000     0.000     0.000     0.000       96        0        0        0        0        4       17     6.489       75     26.5    1.719     0.58        9        2     2014  Parnassus_GroundnutGDDCRO_SandyLoam_S2_rainfed.PRM
  Tot(25)       31       10     2014    160.9    467.7   1719.9   399.74      0.0    160.7      0.2      0.0      0.0    124.2       50    210.4    210.2       85     0.000     0.000     0.000     0.000       97        0        0        0        0        0       10     7.565       86     26.5    2.005     0.60       10        2     2015  Parnassus_GroundnutGDDCRO_SandyLoam_S2_rainfed.PRM
  Tot(26)       31       10     2015    193.2    454.3   1719.8   402.52      0.0    192.9      0.3      5.8      0.0    169.6       70    193.7    193.8       81     0.000     0.000     0.000     0.000       96        0        0        0        0        0       13     7.069       81     26.5    1.873     0.52        9        2     2016  Parnassus_GroundnutGDDCRO_SandyLoam_S2_rainfed.PRM
  Tot(27)       31       10     2016    170.3    467.5   1715.0   405.21      0.0    169.3      1.0     26.5      0.0    146.9       60    174.3    174.6       72     0.000     0.000     0.000     0.000       97        0        0        0        0        8       21     6.183       70     26.5    1.638     0.51       10        2     2017  Parnassus_GroundnutGDDCRO_SandyLoam_S2_rainfed.PRM
  Tot(28)       31       10     2017    435.1    411.7   1735.3   407.21      0.0    423.2     11.9    107.9      0.0    171.2       80    221.2    218.0      100     0.000     0.000     0.000     0.000       99        0        0        0        0        0        0     9.123      100     25.0    2.281     0.58       12        2     2018  Parnassus_GroundnutGDDCRO_SandyLoam_S2_rainfed.PRM
  Tot(29)       31       10     2018     75.0    473.1   1716.0   409.21      0.0     75.0      0.0      0.0      0.0     72.8       28    179.9    182.9       74     0.000     0.000     0.000     0.000       97        0        0        0        0       12       19     6.480       73     26.5    1.717     0.68       10        2     2019  Parnassus_GroundnutGDDCRO_SandyLoam_S2_rainfed.PRM
