AquaCrop 6.0 (March 2017) - Output created on (date) : 3/5/2021   at (time) : 4:09:35 PM

    RunNr     Day1   Month1    Year1     Rain      ETo       GD     CO2      Irri   Infilt   Runoff    Drain   Upflow        E     E/Ex       Tr      TrW   Tr/Trx    SaltIn   SaltOut    SaltUp  SaltProf     Cycle   SaltStr  FertStr  WeedStr  TempStr   ExpStr   StoStr  BioMass  Brelative   HI     Yield     WPet     DayN   MonthN    YearN
                                           mm       mm    °C.day    ppm        mm       mm       mm       mm       mm       mm        %       mm       mm        %    ton/ha    ton/ha    ton/ha    ton/ha      days       %        %        %        %        %        %    ton/ha        %       %    ton/ha    kg/m3
   Tot(1)        1       10     1990    259.0    331.4   1519.6   354.39      0.0    255.8      3.2      0.0      0.0    111.5       64    189.1    185.1      100     0.000     0.000     0.000     0.000       74        0        0        0        0        4        0     8.010       98     56.1    4.490     1.49       15       12     1990  Parnassus_TomatoGDDCRO_ClayLoam_S2_rainfed.PRM
   Tot(2)        1       10     1991    123.5    368.7   1536.7   355.61      0.0    121.6      1.9      0.0      0.0     97.9       50    162.8    165.7       78     0.000     0.000     0.000     0.000       75        0        0        0        0       40       15     5.992       72     56.2    3.366     1.29       16       12     1991  Parnassus_TomatoGDDCRO_ClayLoam_S2_rainfed.PRM
   Tot(3)        1       10     1992     47.0    377.3   1509.3   356.45      0.0     47.0      0.0      0.0      0.0     77.7       34    114.3    114.8       64     0.000     0.000     0.000     0.000       73        0        0        0        0       54       26     3.987       50     49.6    1.979     1.03       14       12     1992  Parnassus_TomatoGDDCRO_ClayLoam_S2_rainfed.PRM
   Tot(4)        1       10     1993    160.1    366.1   1522.8   356.10      0.0    149.5     10.6      0.0      0.0    102.4       50    163.0    161.7       83     0.000     0.000     0.000     0.000       74        0        0        0        0       42       12     6.051       74     55.9    3.380     1.27       15       12     1993  Parnassus_TomatoGDDCRO_ClayLoam_S2_rainfed.PRM
   Tot(5)        1       10     1994    167.0    365.6   1525.0   358.83      0.0    155.7     11.3      0.0      0.0    108.0       57    179.8    180.2       85     0.000     0.000     0.000     0.000       74        0        0        0        0       25       10     6.826       83     55.8    3.812     1.32       15       12     1994  Parnassus_TomatoGDDCRO_ClayLoam_S2_rainfed.PRM
   Tot(6)        1       10     1995    194.6    356.0   1530.0   360.82      0.0    171.3     23.3     40.6      0.0    130.0       70    141.7    142.3       70     0.000     0.000     0.000     0.000       74        0        0        0        0       50       23     5.179       63     53.0    2.746     1.01       15       12     1995  Parnassus_TomatoGDDCRO_ClayLoam_S2_rainfed.PRM
   Tot(7)        1       10     1996    232.3    359.8   1540.1   362.61      0.0    215.3     17.0      0.0      0.0    126.9       73    205.7    204.3       94     0.000     0.000     0.000     0.000       76        0        0        0        0       13        4     8.005       93     57.3    4.588     1.38       17       12     1996  Parnassus_TomatoGDDCRO_ClayLoam_S2_rainfed.PRM
   Tot(8)        1       10     1997    189.1    356.9   1530.2   363.73      0.0    171.0     18.1     23.9      0.0    129.3       72    155.8    157.0       74     0.000     0.000     0.000     0.000       74        0        0        0        0       42       19     5.834       70     53.5    3.119     1.09       15       12     1997  Parnassus_TomatoGDDCRO_ClayLoam_S2_rainfed.PRM
   Tot(9)        1       10     1998    384.7    335.6   1531.9   366.70      0.0    308.6     76.1     48.8      0.0    115.6       70    198.1    196.1       98     0.000     0.000     0.000     0.000       74        0        0        0        0        3        1     8.178       97     57.5    4.702     1.50       15       12     1998  Parnassus_TomatoGDDCRO_ClayLoam_S2_rainfed.PRM
  Tot(10)        1       10     1999    366.2    340.0   1555.8   368.38      0.0    312.0     54.2     79.8      0.0    140.8       90    205.0    208.2       96     0.000     0.000     0.000     0.000       77        0        0        0        0        0        3     8.679       97     60.6    5.262     1.53       19       12     1999  Parnassus_TomatoGDDCRO_ClayLoam_S2_rainfed.PRM
  Tot(11)        1       10     2000    277.4    359.2   1531.0   369.55      0.0    216.9     60.5      6.3      0.0    108.4       57    175.9    172.3       87     0.000     0.000     0.000     0.000       75        0        0        0        0       36        9     7.001       81     56.3    3.942     1.39       16       12     2000  Parnassus_TomatoGDDCRO_ClayLoam_S2_rainfed.PRM
  Tot(12)        1       10     2001    349.9    346.6   1533.3   371.14      0.0    286.5     63.4     65.4      0.0    133.4       79    199.6    200.9       96     0.000     0.000     0.000     0.000       75        0        0        0        0        1        3     8.345       96     57.3    4.784     1.44       16       12     2001  Parnassus_TomatoGDDCRO_ClayLoam_S2_rainfed.PRM
  Tot(13)        1       10     2002    153.2    353.5   1531.3   373.28      0.0    140.2     13.0     14.9      0.0    113.4       64    152.1    153.5       73     0.000     0.000     0.000     0.000       74        0        0        0        0       41       19     5.922       69     53.6    3.174     1.20       15       12     2002  Parnassus_TomatoGDDCRO_ClayLoam_S2_rainfed.PRM
  Tot(14)        1       10     2003    234.2    355.3   1519.3   375.80      0.0    227.4      6.8      2.1      0.0    125.7       73    203.7    200.6       94     0.000     0.000     0.000     0.000       73        0        0        0        0       10        4     7.932       93     55.2    4.380     1.33       14       12     2003  Parnassus_TomatoGDDCRO_ClayLoam_S2_rainfed.PRM
  Tot(15)        1       10     2004     91.5    402.1   1509.3   377.52      0.0     89.6      1.9      2.5      0.0    100.5       42    123.1    126.0       62     0.000     0.000     0.000     0.000       73        0        0        0        0       54       28     4.170       49     48.9    2.037     0.91       14       12     2004  Parnassus_TomatoGDDCRO_ClayLoam_S2_rainfed.PRM
  Tot(16)        1       10     2005    630.3    317.1   1538.6   379.80      0.0    426.5    203.8    206.9      0.0    128.4       94    201.7    200.5       96     0.000     0.000     0.000     0.000       75        0        0        0        0        1        4     8.555       97     59.1    5.054     1.53       16       12     2005  Parnassus_TomatoGDDCRO_ClayLoam_S2_rainfed.PRM
  Tot(17)        1       10     2006    196.6    355.4   1507.4   381.90      0.0    190.3      6.3      0.0      0.0    105.3       56    195.2    194.8       97     0.000     0.000     0.000     0.000       72        0        0        0        0       13        2     7.923       93     55.6    4.402     1.47       13       12     2006  Parnassus_TomatoGDDCRO_ClayLoam_S2_rainfed.PRM
  Tot(18)        1       10     2007    607.0    323.5   1552.0   383.79      0.0    438.0    169.0    182.9      0.0    131.3       92    204.2    206.9       99     0.000     0.000     0.000     0.000       75        0        0        0        0        0        3     8.825       99     59.4    5.242     1.57       17       12     2007  Parnassus_TomatoGDDCRO_ClayLoam_S2_rainfed.PRM
  Tot(19)        1       10     2008    251.8    334.9   1535.4   385.60      0.0    226.0     25.8     21.9      0.0    124.2       78    196.8    194.5       95     0.000     0.000     0.000     0.000       75        0        0        0        0        0        3     8.616       96     57.3    4.938     1.54       16       12     2008  Parnassus_TomatoGDDCRO_ClayLoam_S2_rainfed.PRM
  Tot(20)        1       10     2009    129.6    358.5   1500.6   387.43      0.0    128.5      1.1      0.0      0.0    123.5       69    149.9    151.3       71     0.000     0.000     0.000     0.000       72        0        0        0        0       39       20     5.933       69     49.4    2.933     1.07       13       12     2009  Parnassus_TomatoGDDCRO_ClayLoam_S2_rainfed.PRM
  Tot(21)        1       10     2010    279.4    338.9   1539.5   389.90      0.0    260.5     18.9     24.1      0.0    132.0       86    196.8    194.7       92     0.000     0.000     0.000     0.000       77        0        0        0        0        1        6     8.624       92     57.1    4.921     1.50       18       12     2010  Parnassus_TomatoGDDCRO_ClayLoam_S2_rainfed.PRM
  Tot(22)        1       10     2011    195.3    358.0   1529.1   391.65      0.0    185.5      9.8     13.3      0.0    142.2       86    169.8    171.7       76     0.000     0.000     0.000     0.000       74        0        0        0        0       30       17     6.745       76     53.9    3.635     1.16       15       12     2011  Parnassus_TomatoGDDCRO_ClayLoam_S2_rainfed.PRM
  Tot(23)        1       10     2012    270.7    348.9   1538.5   393.85      0.0    210.8     59.9     42.7      0.0    112.4       67    186.9    186.5       88     0.000     0.000     0.000     0.000       75        0        0        0        0        7        9     7.943       87     56.2    4.464     1.49       16       12     2012  Parnassus_TomatoGDDCRO_ClayLoam_S2_rainfed.PRM
  Tot(24)        1       10     2013    125.8    346.1   1520.9   396.52      0.0    125.1      0.7      1.3      0.0    104.6       59    152.5    152.6       76     0.000     0.000     0.000     0.000       73        0        0        0        0       40       16     6.390       72     52.3    3.343     1.30       14       12     2013  Parnassus_TomatoGDDCRO_ClayLoam_S2_rainfed.PRM
  Tot(25)        1       10     2014    161.8    351.0   1514.2   398.65      0.0    161.7      0.1      0.0      0.0    109.7       58    166.6    165.8       85     0.000     0.000     0.000     0.000       73        0        0        0        0       33       10     7.135       80     54.1    3.861     1.40       14       12     2014  Parnassus_TomatoGDDCRO_ClayLoam_S2_rainfed.PRM
  Tot(26)        1       10     2015    244.1    336.0   1510.9   400.83      0.0    241.3      2.8      1.6      0.0    145.1       88    195.0    194.3       97     0.000     0.000     0.000     0.000       72        0        0        0        0        3        2     8.573       97     55.6    4.767     1.40       13       12     2015  Parnassus_TomatoGDDCRO_ClayLoam_S2_rainfed.PRM
  Tot(27)        1       10     2016    295.2    322.4   1518.2   404.21      0.0    283.4     11.8     10.6      0.0    143.7       93    196.3    196.1      100     0.000     0.000     0.000     0.000       73        0        0        0        0        0        0     9.066      100     55.9    5.066     1.49       14       12     2016  Parnassus_TomatoGDDCRO_ClayLoam_S2_rainfed.PRM
  Tot(28)        1       10     2017    464.7    303.4   1537.8   406.21      0.0    404.0     60.7     88.5      0.0    140.2       94    180.3    179.8      100     0.000     0.000     0.000     0.000       74        0        0        0        0        0        0     9.278      100     59.4    5.515     1.72       15       12     2017  Parnassus_TomatoGDDCRO_ClayLoam_S2_rainfed.PRM
  Tot(29)        1       10     2018    148.1    346.5   1525.5   408.21      0.0    126.2     21.9     28.2      0.0    113.2       63    130.5    133.5       67     0.000     0.000     0.000     0.000       74        0        0        0        0       49       25     5.502       60     51.7    2.844     1.17       15       12     2018  Parnassus_TomatoGDDCRO_ClayLoam_S2_rainfed.PRM
