AquaCrop 6.0 (March 2017) - Output created on (date) : 3/5/2021   at (time) : 3:54:45 PM

    RunNr     Day1   Month1    Year1     Rain      ETo       GD     CO2      Irri   Infilt   Runoff    Drain   Upflow        E     E/Ex       Tr      TrW   Tr/Trx    SaltIn   SaltOut    SaltUp  SaltProf     Cycle   SaltStr  FertStr  WeedStr  TempStr   ExpStr   StoStr  BioMass  Brelative   HI     Yield     WPet     DayN   MonthN    YearN
                                           mm       mm    °C.day    ppm        mm       mm       mm       mm       mm       mm        %       mm       mm        %    ton/ha    ton/ha    ton/ha    ton/ha      days       %        %        %        %        %        %    ton/ha        %       %    ton/ha    kg/m3
   Tot(1)       31        5     1990    120.0    588.8   1685.4   354.39      0.0    119.6      0.4      9.5      0.0    119.5       30     89.2     89.2       43     0.000     0.000     0.000     0.000       91        0        0        0        0       54       46     2.068       28     24.3    0.502     0.24        4        9     1990  Parnassus_GroundnutGDDCRO_Sand_S1_rainfed.PRM
   Tot(2)       31        5     1991     66.2    573.7   1678.6   355.61      0.0     66.2      0.0      0.0      0.0     83.7       19     75.5     75.5       57     0.000     0.000     0.000     0.000       69        0        0        0        0       46       31     1.858       26     18.0    0.335     0.25        4        9     1991  Parnassus_GroundnutGDDCRO_Sand_S1_rainfed.PRM
   Tot(3)       31        5     1992     99.0    586.6   1689.8   356.45      0.0     99.0      0.0      0.0      0.0    109.2       26     82.7     82.7       52     0.000     0.000     0.000     0.000       86        0        0        0        0       55       42     1.979       27     23.5    0.464     0.25        4        9     1992  Parnassus_GroundnutGDDCRO_Sand_S1_rainfed.PRM
   Tot(4)       31        5     1993    138.5    570.5   1694.1   356.10      0.0    137.8      0.7     14.6      0.0    128.0       32     89.1     89.1       56     0.000     0.000     0.000     0.000       73        0        0        0        0       44       32     2.178       29     21.2    0.462     0.24        5        9     1993  Parnassus_GroundnutGDDCRO_Sand_S1_rainfed.PRM
   Tot(5)       31        5     1994     93.9    626.8   1675.2   358.83      0.0     93.9      0.0      0.0      0.0    106.9       22     78.1     78.1       56     0.000     0.000     0.000     0.000       70        0        0        0        0       50       33     1.682       23     19.1    0.321     0.20        3        9     1994  Parnassus_GroundnutGDDCRO_Sand_S1_rainfed.PRM
   Tot(6)       31        5     1995    201.4    563.4   1662.7   360.82      0.0    201.4      0.0      0.0      0.0    151.9       45    151.3    151.2       57     0.000     0.000     0.000     0.000       89        0        0        0        0       39       29     3.853       53     26.5    1.021     0.34        2        9     1995  Parnassus_GroundnutGDDCRO_Sand_S1_rainfed.PRM
   Tot(7)       31        5     1996    135.8    582.1   1668.9   362.61      0.0    135.8      0.0      0.0      0.0    130.3       35    104.3    104.3       42     0.000     0.000     0.000     0.000       90        0        0        0        0       48       40     2.682       37     24.5    0.658     0.28        3        9     1996  Parnassus_GroundnutGDDCRO_Sand_S1_rainfed.PRM
   Tot(8)       31        5     1997    222.2    542.7   1697.1   363.73      0.0    211.7     10.5     53.8      0.0    148.2       44    109.2    109.1       47     0.000     0.000     0.000     0.000       92        0        0        0        0       48       39     2.816       37     26.5    0.746     0.29        5        9     1997  Parnassus_GroundnutGDDCRO_Sand_S1_rainfed.PRM
   Tot(9)       31        5     1998    213.9    558.7   1648.5   366.70      0.0    213.2      0.7      5.1      0.0    136.8       40    155.5    152.6       65     0.000     0.000     0.000     0.000       88        0        0        0        0       35       25     3.983       56     26.5    1.055     0.36       31        8     1998  Parnassus_GroundnutGDDCRO_Sand_S1_rainfed.PRM
  Tot(10)       31        5     1999    229.9    558.6   1682.6   368.38      0.0    229.6      0.3      4.8      0.0    177.4       54    148.4    151.4       56     0.000     0.000     0.000     0.000       91        0        0        0        0       39       30     3.961       53     26.5    1.050     0.32        4        9     1999  Parnassus_GroundnutGDDCRO_Sand_S1_rainfed.PRM
  Tot(11)       31        5     2000    263.7    573.0   1693.2   369.55      0.0    260.4      3.3     18.9      0.0    136.0       40    172.7    169.8       66     0.000     0.000     0.000     0.000       92        0        0        0        0       38       23     4.495       59     26.5    1.191     0.39        5        9     2000  Parnassus_GroundnutGDDCRO_Sand_S1_rainfed.PRM
  Tot(12)       31        5     2001    101.9    587.7   1670.7   371.14      0.0    101.9      0.0      0.0      0.0    100.6       26     99.4    102.2       43     0.000     0.000     0.000     0.000       90        0        0        0        0       50       40     2.534       34     26.0    0.660     0.33        3        9     2001  Parnassus_GroundnutGDDCRO_Sand_S1_rainfed.PRM
  Tot(13)       31        5     2002    200.9    544.3   1687.3   373.28      0.0    195.5      5.4     59.2      0.0    147.2       37     80.3     80.4       57     0.000     0.000     0.000     0.000       72        0        0        0        0       46       30     2.158       28     19.1    0.412     0.22        5        9     2002  Parnassus_GroundnutGDDCRO_Sand_S1_rainfed.PRM
  Tot(14)       31        5     2003    246.4    568.2   1686.7   375.80      0.0    243.0      3.4     19.3      0.0    164.7       49    153.5    152.1       58     0.000     0.000     0.000     0.000       91        0        0        0        0       41       28     4.109       53     26.5    1.089     0.34        4        9     2003  Parnassus_GroundnutGDDCRO_Sand_S1_rainfed.PRM
  Tot(15)       31        5     2004    150.6    590.3   1676.2   377.52      0.0    150.6      0.0      0.0      0.0    113.1       31    138.3    138.2       52     0.000     0.000     0.000     0.000       90        0        0        0        0       48       33     3.500       46     26.5    0.928     0.37        3        9     2004  Parnassus_GroundnutGDDCRO_Sand_S1_rainfed.PRM
  Tot(16)       31        5     2005    637.8    496.3   1700.3   379.80      0.0    534.1    103.7    260.8      0.0    192.3       71    182.6    183.6       72     0.000     0.000     0.000     0.000       92        0        0        0        0       15       19     5.482       71     26.5    1.453     0.39        4        9     2005  Parnassus_GroundnutGDDCRO_Sand_S1_rainfed.PRM
  Tot(17)       31        5     2006    297.1    541.8   1676.0   381.90      0.0    289.1      8.0     70.0      0.0    168.2       54    152.0    152.3       59     0.000     0.000     0.000     0.000       90        0        0        0        0       40       29     4.119       54     26.5    1.092     0.34        3        9     2006  Parnassus_GroundnutGDDCRO_Sand_S1_rainfed.PRM
  Tot(18)       31        5     2007    242.4    550.8   1675.7   383.79      0.0    239.3      3.1      4.2      0.0    127.1       38    196.4    193.2       78     0.000     0.000     0.000     0.000       90        0        0        0        0       29       15     5.542       72     26.5    1.469     0.45        3        9     2007  Parnassus_GroundnutGDDCRO_Sand_S1_rainfed.PRM
  Tot(19)       31        5     2008    496.8    542.8   1685.6   385.60      0.0    404.9     91.9     33.3      0.0    130.0       43    248.4    247.8       90     0.000     0.000     0.000     0.000       91        0        0        0        0       21        6     6.999       89     26.5    1.855     0.49        4        9     2008  Parnassus_GroundnutGDDCRO_Sand_S1_rainfed.PRM
  Tot(20)       31        5     2009    210.1    549.6   1684.5   387.43      0.0    210.1      0.0      1.7      0.0    158.1       47    145.1    148.1       65     0.000     0.000     0.000     0.000       91        0        0        0        0       42       25     3.908       50     26.5    1.036     0.34        4        9     2009  Parnassus_GroundnutGDDCRO_Sand_S1_rainfed.PRM
  Tot(21)       31        5     2010    393.5    496.7   1684.5   389.90      0.0    388.3      5.2     55.7      0.0    178.4       65    249.7    246.3       98     0.000     0.000     0.000     0.000       91        0        0        0        0        0        1     7.687       98     26.5    2.037     0.48        3        9     2010  Parnassus_GroundnutGDDCRO_Sand_S1_rainfed.PRM
  Tot(22)       31        5     2011    528.1    509.7   1702.4   391.65      0.0    492.2     35.9    153.1      0.0    170.6       63    256.2    256.4       94     0.000     0.000     0.000     0.000       92        0        0        0        0        0        4     7.595       95     26.5    2.013     0.47        5        9     2011  Parnassus_GroundnutGDDCRO_Sand_S1_rainfed.PRM
  Tot(23)       31        5     2012    305.7    549.5   1672.1   393.85      0.0    297.8      7.9     22.3      0.0    140.0       45    228.9    230.2       84     0.000     0.000     0.000     0.000       90        0        0        0        0       22       10     6.553       83     26.5    1.736     0.47        3        9     2012  Parnassus_GroundnutGDDCRO_Sand_S1_rainfed.PRM
  Tot(24)       31        5     2013    227.6    531.5   1684.4   396.52      0.0    227.6      0.0      1.6      0.0    142.6       47    181.3    182.9       70     0.000     0.000     0.000     0.000       91        0        0        0        0       34       21     5.313       66     26.5    1.408     0.43        4        9     2013  Parnassus_GroundnutGDDCRO_Sand_S1_rainfed.PRM
  Tot(25)       31        5     2014    183.8    549.0   1671.5   398.65      0.0    177.5      6.3      0.0      0.0    120.0       34    127.3    124.8       54     0.000     0.000     0.000     0.000       90        0        0        0        0       45       32     3.627       46     25.6    0.929     0.38        3        9     2014  Parnassus_GroundnutGDDCRO_Sand_S1_rainfed.PRM
  Tot(26)       31        5     2015    167.7    551.3   1672.0   400.83      0.0    164.6      3.1     24.1      0.0    148.2       38     86.9     90.4       56     0.000     0.000     0.000     0.000       74        0        0        0        0       45       32     2.499       31     21.2    0.530     0.25        3        9     2015  Parnassus_GroundnutGDDCRO_Sand_S1_rainfed.PRM
  Tot(27)       31        5     2016    282.2    530.2   1667.7   404.21      0.0    278.0      4.2     29.4      0.0    163.7       53    174.8    171.8       69     0.000     0.000     0.000     0.000       89        0        0        0        0       39       20     5.147       65     26.5    1.364     0.40        2        9     2016  Parnassus_GroundnutGDDCRO_Sand_S1_rainfed.PRM
  Tot(28)       31        5     2017    271.4    520.2   1676.3   406.21      0.0    262.3      9.1     83.1      0.0    148.7       49    131.7    134.5       53     0.000     0.000     0.000     0.000       90        0        0        0        0       42       32     3.975       49     26.5    1.053     0.38        3        9     2017  Parnassus_GroundnutGDDCRO_Sand_S1_rainfed.PRM
  Tot(29)       31        5     2018    131.9    546.7   1682.8   408.21      0.0    131.9      0.0      0.0      0.0    142.5       36     81.3     81.5       57     0.000     0.000     0.000     0.000       72        0        0        0        0       46       31     2.345       29     20.1    0.472     0.24        4        9     2018  Parnassus_GroundnutGDDCRO_Sand_S1_rainfed.PRM
