AquaCrop 6.0 (March 2017) - Output created on (date) : 3/5/2021   at (time) : 4:08:33 PM

    RunNr     Day1   Month1    Year1     Rain      ETo       GD     CO2      Irri   Infilt   Runoff    Drain   Upflow        E     E/Ex       Tr      TrW   Tr/Trx    SaltIn   SaltOut    SaltUp  SaltProf     Cycle   SaltStr  FertStr  WeedStr  TempStr   ExpStr   StoStr  BioMass  Brelative   HI     Yield     WPet     DayN   MonthN    YearN
                                           mm       mm    °C.day    ppm        mm       mm       mm       mm       mm       mm        %       mm       mm        %    ton/ha    ton/ha    ton/ha    ton/ha      days       %        %        %        %        %        %    ton/ha        %       %    ton/ha    kg/m3
   Tot(1)        1       10     1990    259.0    331.4   1519.6   354.39    100.5    235.7     23.3     28.8      0.0    155.8       93    166.9    163.0       86     0.000     0.000     0.000     0.000       74        0        0        0        0        0       10     7.059       86     56.1    3.957     1.23       15       12     1990  Parnassus_TomatoGDDCRO_Clay_S2_riegoIRR.PRM
   Tot(2)        1       10     1991    123.5    368.7   1536.7   355.61    266.6    110.2     13.3      0.9      0.0    164.7       93    226.4    226.4      100     0.000     0.000     0.000     0.000       75        0        0        0        0        0        0     8.361      100     59.4    4.970     1.27       16       12     1991  Parnassus_TomatoGDDCRO_Clay_S2_riegoIRR.PRM
   Tot(3)        1       10     1992     47.0    377.3   1509.3   356.45    335.0     46.8      0.2      0.0      0.0    165.8       91    230.8    230.5      100     0.000     0.000     0.000     0.000       73        0        0        0        0        0        0     8.116      100     55.9    4.535     1.14       14       12     1992  Parnassus_TomatoGDDCRO_Clay_S2_riegoIRR.PRM
   Tot(4)        1       10     1993    160.1    366.1   1522.8   356.10    255.9    132.2     27.9     12.3      0.0    163.5       93    224.3    226.0      100     0.000     0.000     0.000     0.000       74        0        0        0        0        0        0     8.260      100     57.7    4.763     1.23       15       12     1993  Parnassus_TomatoGDDCRO_Clay_S2_riegoIRR.PRM
   Tot(5)        1       10     1994    167.0    365.6   1525.0   358.83    244.8    141.0     26.0     15.5      0.0    164.8       92    220.7    219.4      100     0.000     0.000     0.000     0.000       74        0        0        0        0        0        0     8.307      100     57.7    4.790     1.24       15       12     1994  Parnassus_TomatoGDDCRO_Clay_S2_riegoIRR.PRM
   Tot(6)        1       10     1995    194.6    356.0   1530.0   360.82    243.2    175.0     19.6     49.5      0.0    158.5       97    225.2    225.1      100     0.000     0.000     0.000     0.000       74        0        0        0        0        0        0     8.352      100     57.7    4.816     1.26       15       12     1995  Parnassus_TomatoGDDCRO_Clay_S2_riegoIRR.PRM
   Tot(7)        1       10     1996    232.3    359.8   1540.1   362.61    205.8    197.5     34.8     47.2      0.0    159.9       95    211.1    211.0       94     0.000     0.000     0.000     0.000       76        0        0        0        0        0        5     8.042       93     57.9    4.656     1.26       17       12     1996  Parnassus_TomatoGDDCRO_Clay_S2_riegoIRR.PRM
   Tot(8)        1       10     1997    189.1    356.9   1530.2   363.73    233.1    170.4     18.7     34.6      0.0    160.3       96    222.9    224.3      100     0.000     0.000     0.000     0.000       74        0        0        0        0        0        0     8.386      100     57.7    4.835     1.26       15       12     1997  Parnassus_TomatoGDDCRO_Clay_S2_riegoIRR.PRM
   Tot(9)        1       10     1998    384.7    335.6   1531.9   366.70    146.9    254.4    130.3     55.7      0.0    150.9       94    205.8    205.4      100     0.000     0.000     0.000     0.000       74        0        0        0        0        0        0     8.519      100     57.7    4.912     1.38       15       12     1998  Parnassus_TomatoGDDCRO_Clay_S2_riegoIRR.PRM
  Tot(10)        1       10     1999    366.2    340.0   1555.8   368.38    148.9    298.2     68.0    107.2      0.0    151.6       97    205.9    209.0       97     0.000     0.000     0.000     0.000       77        0        0        0        0        0        3     8.570       96     61.0    5.228     1.47       19       12     1999  Parnassus_TomatoGDDCRO_Clay_S2_riegoIRR.PRM
  Tot(11)        1       10     2000    277.4    359.2   1531.0   369.55    224.4    199.4     78.0     70.3      0.0    160.0       93    208.6    204.8       94     0.000     0.000     0.000     0.000       75        0        0        0        0        0        4     8.151       95     57.8    4.711     1.28       16       12     2000  Parnassus_TomatoGDDCRO_Clay_S2_riegoIRR.PRM
  Tot(12)        1       10     2001    349.9    346.6   1533.3   371.14    162.8    267.4     82.5     74.5      0.0    159.7       95    210.2    210.6      100     0.000     0.000     0.000     0.000       75        0        0        0        0        0        0     8.773      100     57.8    5.070     1.37       16       12     2001  Parnassus_TomatoGDDCRO_Clay_S2_riegoIRR.PRM
  Tot(13)        1       10     2002    153.2    353.5   1531.3   373.28    258.4    133.5     19.7     32.5      0.0    153.4       93    221.8    222.0      100     0.000     0.000     0.000     0.000       74        0        0        0        0        0        0     8.615      100     57.7    4.968     1.32       15       12     2002  Parnassus_TomatoGDDCRO_Clay_S2_riegoIRR.PRM
  Tot(14)        1       10     2003    234.2    355.3   1519.3   375.80    177.8    203.1     31.1     11.6      0.0    160.3       95    220.0    219.4      100     0.000     0.000     0.000     0.000       73        0        0        0        0        0        0     8.559      100     55.9    4.783     1.26       14       12     2003  Parnassus_TomatoGDDCRO_Clay_S2_riegoIRR.PRM
  Tot(15)        1       10     2004     91.5    402.1   1509.3   377.52    333.9     86.3      5.2      6.0      0.0    171.4       92    252.3    252.1      100     0.000     0.000     0.000     0.000       73        0        0        0        0        0        0     8.600      100     55.9    4.806     1.13       14       12     2004  Parnassus_TomatoGDDCRO_Clay_S2_riegoIRR.PRM
  Tot(16)        1       10     2005    630.3    317.1   1538.6   379.80    122.0    432.2    198.1    224.8      0.0    135.7      100    209.4    210.2      100     0.000     0.000     0.000     0.000       75        0        0        0        0        0        0     8.899      100     59.4    5.290     1.53       16       12     2005  Parnassus_TomatoGDDCRO_Clay_S2_riegoIRR.PRM
  Tot(17)        1       10     2006    196.6    355.4   1507.4   381.90    197.0    167.8     28.8     12.1      0.0    163.7       92    204.1    203.3       97     0.000     0.000     0.000     0.000       72        0        0        0        0        0        2     8.239       97     55.9    4.604     1.25       13       12     2006  Parnassus_TomatoGDDCRO_Clay_S2_riegoIRR.PRM
  Tot(18)        1       10     2007    607.0    323.5   1552.0   383.79     98.9    411.4    195.6    193.2      0.0    140.2       98    189.8    193.9       92     0.000     0.000     0.000     0.000       75        0        0        0        0        0        6     8.155       92     59.5    4.854     1.48       17       12     2007  Parnassus_TomatoGDDCRO_Clay_S2_riegoIRR.PRM
  Tot(19)        1       10     2008    251.8    334.9   1535.4   385.60    172.8    208.2     43.6     51.2      0.0    151.1       96    194.0    190.2       94     0.000     0.000     0.000     0.000       75        0        0        0        0        0        5     8.407       94     57.8    4.858     1.41       16       12     2008  Parnassus_TomatoGDDCRO_Clay_S2_riegoIRR.PRM
  Tot(20)        1       10     2009    129.6    358.5   1500.6   387.43    254.6    118.5     11.1      5.6      0.0    162.1       95    219.8    218.9      100     0.000     0.000     0.000     0.000       72        0        0        0        0        0        0     8.623      100     54.1    4.666     1.22       13       12     2009  Parnassus_TomatoGDDCRO_Clay_S2_riegoIRR.PRM
  Tot(21)        1       10     2010    279.4    338.9   1539.5   389.90    177.1    230.9     48.5     42.2      0.0    147.2       96    215.0    216.8      100     0.000     0.000     0.000     0.000       77        0        0        0        0        0        0     9.449      100     58.0    5.482     1.51       18       12     2010  Parnassus_TomatoGDDCRO_Clay_S2_riegoIRR.PRM
  Tot(22)        1       10     2011    195.3    358.0   1529.1   391.65    217.3    177.5     17.8     24.0      0.0    159.0       97    226.8    225.6      100     0.000     0.000     0.000     0.000       74        0        0        0        0        0        0     8.987      100     57.7    5.182     1.34       15       12     2011  Parnassus_TomatoGDDCRO_Clay_S2_riegoIRR.PRM
  Tot(23)        1       10     2012    270.7    348.9   1538.5   393.85    224.5    183.6     87.1     53.7      0.0    154.3       94    215.5    215.8      100     0.000     0.000     0.000     0.000       75        0        0        0        0        0        0     9.183      100     57.8    5.307     1.44       16       12     2012  Parnassus_TomatoGDDCRO_Clay_S2_riegoIRR.PRM
  Tot(24)        1       10     2013    125.8    346.1   1520.9   396.52    237.1    117.6      8.2      3.6      0.0    153.0       94    213.4    213.2      100     0.000     0.000     0.000     0.000       73        0        0        0        0        0        0     8.919      100     55.9    4.984     1.36       14       12     2013  Parnassus_TomatoGDDCRO_Clay_S2_riegoIRR.PRM
  Tot(25)        1       10     2014    161.8    351.0   1514.2   398.65    208.8    151.4     10.4      0.0      0.0    160.0       92    209.5    211.3      100     0.000     0.000     0.000     0.000       73        0        0        0        0        0        0     8.951      100     55.9    5.002     1.35       14       12     2014  Parnassus_TomatoGDDCRO_Clay_S2_riegoIRR.PRM
  Tot(26)        1       10     2015    244.1    336.0   1510.9   400.83    123.7    228.1     16.0      7.8      0.0    158.0       96    201.7    200.5      100     0.000     0.000     0.000     0.000       72        0        0        0        0        0        0     8.874      100     55.9    4.959     1.38       13       12     2015  Parnassus_TomatoGDDCRO_Clay_S2_riegoIRR.PRM
  Tot(27)        1       10     2016    295.2    322.4   1518.2   404.21     85.8    268.0     27.2     33.1      0.0    149.7       97    187.1    187.5       95     0.000     0.000     0.000     0.000       73        0        0        0        0        0        4     8.592       95     55.9    4.801     1.43       14       12     2016  Parnassus_TomatoGDDCRO_Clay_S2_riegoIRR.PRM
  Tot(28)        1       10     2017    464.7    303.4   1537.8   406.21     34.1    377.0     87.7    100.8      0.0    145.9       98    163.2    162.7       90     0.000     0.000     0.000     0.000       74        0        0        0        0        0        8     8.244       90     59.4    4.900     1.59       15       12     2017  Parnassus_TomatoGDDCRO_Clay_S2_riegoIRR.PRM
  Tot(29)        1       10     2018    148.1    346.5   1525.5   408.21    260.6    130.1     18.0     35.3      0.0    153.2       96    217.2    216.7      100     0.000     0.000     0.000     0.000       74        0        0        0        0        0        0     9.219      100     57.7    5.316     1.44       15       12     2018  Parnassus_TomatoGDDCRO_Clay_S2_riegoIRR.PRM
