AquaCrop 6.0 (March 2017) - Output created on (date) : 3/5/2021   at (time) : 4:12:03 PM

    RunNr     Day1   Month1    Year1     Rain      ETo       GD     CO2      Irri   Infilt   Runoff    Drain   Upflow        E     E/Ex       Tr      TrW   Tr/Trx    SaltIn   SaltOut    SaltUp  SaltProf     Cycle   SaltStr  FertStr  WeedStr  TempStr   ExpStr   StoStr  BioMass  Brelative   HI     Yield     WPet     DayN   MonthN    YearN
                                           mm       mm    °C.day    ppm        mm       mm       mm       mm       mm       mm        %       mm       mm        %    ton/ha    ton/ha    ton/ha    ton/ha      days       %        %        %        %        %        %    ton/ha        %       %    ton/ha    kg/m3
   Tot(1)       31        5     1990     98.3    447.1   1504.3   354.39    349.0     97.0      1.3     18.5      0.0    152.7       73    281.3    276.2      100     0.000     0.000     0.000     0.000       72        0        0        0        0        0        0     7.920      100     55.7    4.412     1.02       12        8     1990  Parnassus_TomatoGDDCRO_Sand_S1_riegoIRR.PRM
   Tot(2)       31        5     1991     41.1    442.2   1520.2   355.61    375.9     41.1      0.0      0.0      0.0    148.2       71    275.7    276.3      100     0.000     0.000     0.000     0.000       73        0        0        0        0        0        0     8.080      100     57.5    4.649     1.10       13        8     1991  Parnassus_TomatoGDDCRO_Sand_S1_riegoIRR.PRM
   Tot(3)       31        5     1992     80.1    442.4   1508.4   356.45    348.5     80.0      0.1      3.3      0.0    153.3       74    278.3    277.6      100     0.000     0.000     0.000     0.000       72        0        0        0        0        0        0     7.980      100     55.7    4.446     1.03       12        8     1992  Parnassus_TomatoGDDCRO_Sand_S1_riegoIRR.PRM
   Tot(4)       31        5     1993    110.0    432.2   1519.6   356.10    334.9    109.2      0.8     13.9      0.0    159.4       82    277.4    277.6      100     0.000     0.000     0.000     0.000       73        0        0        0        0        0        0     8.089      100     57.5    4.654     1.07       13        8     1993  Parnassus_TomatoGDDCRO_Sand_S1_riegoIRR.PRM
   Tot(5)       31        5     1994     63.2    491.3   1511.7   358.83    397.4     63.2      0.0      0.0      0.0    162.3       70    304.6    304.0      100     0.000     0.000     0.000     0.000       72        0        0        0        0        0        0     8.022      100     55.7    4.469     0.96       12        8     1994  Parnassus_TomatoGDDCRO_Sand_S1_riegoIRR.PRM
   Tot(6)       31        5     1995    158.5    431.8   1496.4   360.82    277.5    158.2      0.3      0.0      0.0    167.8       81    267.1    270.1      100     0.000     0.000     0.000     0.000       71        0        0        0        0        0        0     7.932      100     53.9    4.274     0.98       11        8     1995  Parnassus_TomatoGDDCRO_Sand_S1_riegoIRR.PRM
   Tot(7)       31        5     1996     99.5    456.5   1508.3   362.61    336.2     99.5      0.0      0.0      0.0    163.7       74    278.7    276.3      100     0.000     0.000     0.000     0.000       72        0        0        0        0        0        0     8.104      100     55.7    4.514     1.02       12        8     1996  Parnassus_TomatoGDDCRO_Sand_S1_riegoIRR.PRM
   Tot(8)       31        5     1997    188.1    418.7   1521.1   363.73    297.2    177.0     11.1     57.9      0.0    154.8       82    268.2    268.5      100     0.000     0.000     0.000     0.000       73        0        0        0        0        0        0     8.241      100     57.5    4.741     1.12       13        8     1997  Parnassus_TomatoGDDCRO_Sand_S1_riegoIRR.PRM
   Tot(9)       31        5     1998    141.0    439.7   1489.9   366.70    306.6    136.1      4.9     24.3      0.0    158.9       74    266.0    265.3      100     0.000     0.000     0.000     0.000       70        0        0        0        0        0        0     7.950      100     53.9    4.284     1.01       10        8     1998  Parnassus_TomatoGDDCRO_Sand_S1_riegoIRR.PRM
  Tot(10)       31        5     1999    167.5    436.3   1519.3   368.38    280.5    166.3      1.2     12.4      0.0    170.7       82    270.2    270.3      100     0.000     0.000     0.000     0.000       73        0        0        0        0        0        0     8.367      100     57.5    4.813     1.09       13        8     1999  Parnassus_TomatoGDDCRO_Sand_S1_riegoIRR.PRM
  Tot(11)       31        5     2000    159.9    440.4   1516.9   369.55    294.2    157.9      2.0     20.6      0.0    161.1       79    276.8    276.7      100     0.000     0.000     0.000     0.000       73        0        0        0        0        0        0     8.391      100     55.9    4.689     1.07       13        8     2000  Parnassus_TomatoGDDCRO_Sand_S1_riegoIRR.PRM
  Tot(12)       31        5     2001     65.5    454.1   1503.5   371.14    361.3     65.5      0.0      0.0      0.0    154.9       71    278.4    278.4      100     0.000     0.000     0.000     0.000       72        0        0        0        0        0        0     8.240      100     55.7    4.590     1.06       12        8     2001  Parnassus_TomatoGDDCRO_Sand_S1_riegoIRR.PRM
  Tot(13)       31        5     2002    160.1    420.5   1530.3   373.28    328.3    154.5      5.6     62.5      0.0    153.8       83    272.9    272.9      100     0.000     0.000     0.000     0.000       74        0        0        0        0        0        0     8.540      100     57.5    4.913     1.15       14        8     2002  Parnassus_TomatoGDDCRO_Sand_S1_riegoIRR.PRM
  Tot(14)       31        5     2003    175.1    436.9   1504.5   375.80    294.1    169.7      5.4     31.6      0.0    169.4       81    269.1    268.8      100     0.000     0.000     0.000     0.000       72        0        0        0        0        0        0     8.355      100     55.7    4.654     1.06       12        8     2003  Parnassus_TomatoGDDCRO_Sand_S1_riegoIRR.PRM
  Tot(15)       31        5     2004    126.0    453.4   1510.5   377.52    335.1    121.0      5.0     15.3      0.0    155.8       72    280.5    281.6      100     0.000     0.000     0.000     0.000       72        0        0        0        0        0        0     8.395      100     55.7    4.677     1.07       12        8     2004  Parnassus_TomatoGDDCRO_Sand_S1_riegoIRR.PRM
  Tot(16)       31        5     2005    578.5    378.7   1517.3   379.80    190.1    460.6    117.9    265.5      0.0    153.9       88    238.1    237.9      100     0.000     0.000     0.000     0.000       72        0        0        0        0        0        0     8.441      100     55.7    4.702     1.20       12        8     2005  Parnassus_TomatoGDDCRO_Sand_S1_riegoIRR.PRM
  Tot(17)       31        5     2006    250.6    418.0   1511.5   381.90    249.8    242.1      8.5     70.0      0.0    162.2       85    266.6    266.7      100     0.000     0.000     0.000     0.000       72        0        0        0        0        0        0     8.474      100     55.7    4.721     1.10       12        8     2006  Parnassus_TomatoGDDCRO_Sand_S1_riegoIRR.PRM
  Tot(18)       31        5     2007    168.7    431.2   1492.9   383.79    314.4    160.5      8.2     23.7      0.0    157.2       78    271.1    273.7      100     0.000     0.000     0.000     0.000       71        0        0        0        0        0        0     8.359      100     53.9    4.504     1.05       11        8     2007  Parnassus_TomatoGDDCRO_Sand_S1_riegoIRR.PRM
  Tot(19)       31        5     2008    190.0    424.7   1504.3   385.60    297.4    165.8     24.2     45.7      0.0    158.2       80    266.1    263.4      100     0.000     0.000     0.000     0.000       72        0        0        0        0        0        0     8.516      100     55.7    4.744     1.12       12        8     2008  Parnassus_TomatoGDDCRO_Sand_S1_riegoIRR.PRM
  Tot(20)       31        5     2009    134.3    422.7   1524.1   387.43    300.3    133.1      1.2     10.5      0.0    157.5       83    271.8    271.1      100     0.000     0.000     0.000     0.000       73        0        0        0        0        0        0     8.682      100     57.5    4.994     1.16       13        8     2009  Parnassus_TomatoGDDCRO_Sand_S1_riegoIRR.PRM
  Tot(21)       31        5     2010    311.9    381.0   1519.2   389.90    139.7    305.9      6.0     75.2      0.0    149.6       80    227.7    228.7      100     0.000     0.000     0.000     0.000       72        0        0        0        0        0        0     8.653      100     55.7    4.820     1.28       12        8     2010  Parnassus_TomatoGDDCRO_Sand_S1_riegoIRR.PRM
  Tot(22)       31        5     2011    425.5    387.0   1523.6   391.65    185.4    387.3     38.2    180.6      0.0    151.3       87    247.5    247.1      100     0.000     0.000     0.000     0.000       73        0        0        0        0        0        0     8.772      100     57.5    5.047     1.27       13        8     2011  Parnassus_TomatoGDDCRO_Sand_S1_riegoIRR.PRM
  Tot(23)       31        5     2012    235.4    426.4   1509.8   393.85    263.2    223.5     11.9     69.2      0.0    163.9       80    260.3    260.4      100     0.000     0.000     0.000     0.000       72        0        0        0        0        0        0     8.688      100     55.7    4.840     1.14       12        8     2012  Parnassus_TomatoGDDCRO_Sand_S1_riegoIRR.PRM
  Tot(24)       31        5     2013    132.0    411.4   1505.7   396.52    280.5    131.0      1.0      9.3      0.0    153.0       79    255.7    255.2      100     0.000     0.000     0.000     0.000       72        0        0        0        0        0        0     8.736      100     55.7    4.867     1.19       12        8     2013  Parnassus_TomatoGDDCRO_Sand_S1_riegoIRR.PRM
  Tot(25)       31        5     2014     83.9    429.0   1504.7   398.65    333.6     83.9      0.0      0.0      0.0    155.4       78    268.6    268.6      100     0.000     0.000     0.000     0.000       72        0        0        0        0        0        0     8.757      100     55.7    4.878     1.15       12        8     2014  Parnassus_TomatoGDDCRO_Sand_S1_riegoIRR.PRM
  Tot(26)       31        5     2015    137.6    419.2   1504.2   400.83    307.8    133.7      3.9     23.8      0.0    159.5       83    264.8    264.8      100     0.000     0.000     0.000     0.000       72        0        0        0        0        0        0     8.797      100     55.7    4.900     1.16       12        8     2015  Parnassus_TomatoGDDCRO_Sand_S1_riegoIRR.PRM
  Tot(27)       31        5     2016    209.3    409.8   1498.1   404.21    259.0    202.9      6.4     49.5      0.0    162.9       86    256.8    258.3      100     0.000     0.000     0.000     0.000       71        0        0        0        0        0        0     8.715      100     53.9    4.696     1.12       11        8     2016  Parnassus_TomatoGDDCRO_Sand_S1_riegoIRR.PRM
  Tot(28)       31        5     2017    227.6    402.3   1510.7   406.21    267.0    189.7     37.9     67.5      0.0    146.5       78    249.2    247.8      100     0.000     0.000     0.000     0.000       72        0        0        0        0        0        0     8.886      100     55.7    4.950     1.25       12        8     2017  Parnassus_TomatoGDDCRO_Sand_S1_riegoIRR.PRM
  Tot(29)       31        5     2018     98.2    416.3   1520.5   408.21    318.4     97.7      0.5      6.9      0.0    153.7       81    262.0    262.0      100     0.000     0.000     0.000     0.000       73        0        0        0        0        0        0     9.055      100     57.5    5.209     1.25       13        8     2018  Parnassus_TomatoGDDCRO_Sand_S1_riegoIRR.PRM
