AquaCrop 6.0 (March 2017) - Output created on (date) : 3/5/2021   at (time) : 4:04:45 PM

    RunNr     Day1   Month1    Year1     Rain      ETo       GD     CO2      Irri   Infilt   Runoff    Drain   Upflow        E     E/Ex       Tr      TrW   Tr/Trx    SaltIn   SaltOut    SaltUp  SaltProf     Cycle   SaltStr  FertStr  WeedStr  TempStr   ExpStr   StoStr  BioMass  Brelative   HI     Yield     WPet     DayN   MonthN    YearN
                                           mm       mm    °C.day    ppm        mm       mm       mm       mm       mm       mm        %       mm       mm        %    ton/ha    ton/ha    ton/ha    ton/ha      days       %        %        %        %        %        %    ton/ha        %       %    ton/ha    kg/m3
   Tot(1)        1       10     1990    266.7    480.7   1295.0   355.00      0.0    266.5      0.2     15.2      0.0     69.5       47    291.7    291.7       80     0.000     0.000     0.000     0.000      101        0        0        0        0        1       15    13.345       82     45.0    6.001     1.66       15        1     1991  Parnassus_SweetPotatoGDDCRO_Sand_S2_rainfed.PRM
   Tot(2)        1       10     1991    133.4    514.7   1296.8   356.03      0.0    132.0      1.4      0.0      0.0     78.3       42    158.4    158.4       44     0.000     0.000     0.000     0.000      102        0        0        0        0       58       45     6.589       40     26.2    1.729     0.73       17        1     1992  Parnassus_SweetPotatoGDDCRO_Sand_S2_rainfed.PRM
   Tot(3)        1       10     1992     75.0    522.9   1294.1   356.27      0.0     75.0      0.0      0.0      0.0     82.8       30     88.7     88.4       33     0.000     0.000     0.000     0.000       99        0        0        0        0       70       56     3.491       22     20.5    0.714     0.42       12        1     1993  Parnassus_SweetPotatoGDDCRO_Sand_S2_rainfed.PRM
   Tot(4)        1       10     1993    191.1    507.3   1295.5   357.47      0.0    186.2      4.9      0.3      0.0     85.2       43    201.5    201.7       58     0.000     0.000     0.000     0.000      100        0        0        0        0       50       33     8.728       54     37.3    3.252     1.14       15        1     1994  Parnassus_SweetPotatoGDDCRO_Sand_S2_rainfed.PRM
   Tot(5)        1       10     1994    189.2    512.7   1299.0   359.82      0.0    185.4      3.8      0.0      0.0     83.2       49    209.9    209.9       56     0.000     0.000     0.000     0.000      101        0        0        0        0       30       34     8.921       55     31.3    2.793     0.96       15        1     1995  Parnassus_SweetPotatoGDDCRO_Sand_S2_rainfed.PRM
   Tot(6)        1       10     1995    224.4    492.5   1294.2   361.72      0.0    220.2      4.2     62.9      0.0    128.5       64    132.2    130.1       41     0.000     0.000     0.000     0.000       99        0        0        0        0       64       48     5.562       35     25.3    1.407     0.54       13        1     1996  Parnassus_SweetPotatoGDDCRO_Sand_S2_rainfed.PRM
   Tot(7)        1       10     1996    252.2    518.2   1297.0   363.17      0.0    247.3      4.9     18.4      0.0     96.9       62    239.7    241.8       61     0.000     0.000     0.000     0.000      105        0        0        0        0       22       31    10.417       61     35.2    3.670     1.09       19        1     1997  Parnassus_SweetPotatoGDDCRO_Sand_S2_rainfed.PRM
   Tot(8)        1       10     1997    222.5    492.9   1295.1   365.22      0.0    219.1      3.4     43.1      0.0    123.8       63    155.5    155.5       47     0.000     0.000     0.000     0.000       98        0        0        0        0       63       42     6.643       42     28.0    1.860     0.67       13        1     1998  Parnassus_SweetPotatoGDDCRO_Sand_S2_rainfed.PRM
   Tot(9)        1       10     1998    421.8    472.2   1296.4   367.54      0.0    391.6     30.2    103.4      0.0     77.5       55    313.9    313.9       86     0.000     0.000     0.000     0.000      101        0        0        0        0        0       11    14.456       87     47.6    6.884     1.76       15        1     1999  Parnassus_SweetPotatoGDDCRO_Sand_S2_rainfed.PRM
  Tot(10)        1       10     1999    392.9    510.7   1294.6   368.97      0.0    376.6     16.3    139.0      0.0    113.3       82    230.4    230.4       57     0.000     0.000     0.000     0.000      111        0        0        0        0       10       34    10.932       59     32.5    3.551     1.04       25        1     2000  Parnassus_SweetPotatoGDDCRO_Sand_S2_rainfed.PRM
  Tot(11)        1       10     2000    370.5    492.9   1294.3   370.35      0.0    348.9     21.6     53.7      0.0     77.2       45    299.2    295.4       83     0.000     0.000     0.000     0.000      105        0        0        0        0       35       13    14.374       82     46.5    6.688     1.78       19        1     2001  Parnassus_SweetPotatoGDDCRO_Sand_S2_rainfed.PRM
  Tot(12)        1       10     2001    455.1    474.8   1301.5   372.21      0.0    431.5     23.6    125.2      0.0    101.0       69    297.3    301.1       82     0.000     0.000     0.000     0.000      103        0        0        0        0        0       14    14.421       84     47.0    6.771     1.70       17        1     2002  Parnassus_SweetPotatoGDDCRO_Sand_S2_rainfed.PRM
  Tot(13)        1       10     2002    205.1    482.7   1295.7   374.54      0.0    201.3      3.8     40.1      0.0     97.8       53    164.5    164.5       50     0.000     0.000     0.000     0.000       98        0        0        0        0       62       39     7.375       45     31.4    2.316     0.88       13        1     2003  Parnassus_SweetPotatoGDDCRO_Sand_S2_rainfed.PRM
  Tot(14)        1       10     2003    291.2    498.9   1301.8   376.66      0.0    289.9      1.3      6.2      0.0     87.3       60    301.7    301.7       78     0.000     0.000     0.000     0.000       99        0        0        0        0        3       18    13.109       79     45.7    5.991     1.54       13        1     2004  Parnassus_SweetPotatoGDDCRO_Sand_S2_rainfed.PRM
  Tot(15)        1       10     2004    141.3    544.0   1304.9   378.66      0.0    141.1      0.2      5.6      0.0     96.9       41    136.4    136.4       40     0.000     0.000     0.000     0.000      100        0        0        0        0       65       49     5.626       33     20.8    1.172     0.51       14        1     2005  Parnassus_SweetPotatoGDDCRO_Sand_S2_rainfed.PRM
  Tot(16)        1       10     2005    709.8    451.0   1299.1   380.85      0.0    632.8     77.0    336.4      0.0    114.9       96    281.5    281.5       78     0.000     0.000     0.000     0.000      103        0        0        0        0        7       17    13.719       78     45.7    6.272     1.58       18        1     2006  Parnassus_SweetPotatoGDDCRO_Sand_S2_rainfed.PRM
  Tot(17)        1       10     2006    208.1    489.5   1304.2   382.85      0.0    207.5      0.6      0.0      0.0     67.0       43    250.3    250.3       68     0.000     0.000     0.000     0.000       95        0        0        0        0       22       25    11.285       69     39.5    4.458     1.40        9        1     2007  Parnassus_SweetPotatoGDDCRO_Sand_S2_rainfed.PRM
  Tot(18)        1       10     2007    615.8    469.0   1298.7   384.70      0.0    553.7     62.1    298.7      0.0    110.0       88    254.3    254.3       68     0.000     0.000     0.000     0.000      104        0        0        0        0        0       26    12.273       69     39.5    4.845     1.33       19        1     2008  Parnassus_SweetPotatoGDDCRO_Sand_S2_rainfed.PRM
  Tot(19)        1       10     2008    265.9    487.5   1302.9   386.51      0.0    259.5      6.4     65.1      0.0     94.5       65    208.6    208.6       57     0.000     0.000     0.000     0.000      103        0        0        0        0       13       35    10.149       57     30.4    3.085     1.03       18        1     2009  Parnassus_SweetPotatoGDDCRO_Sand_S2_rainfed.PRM
  Tot(20)        1       10     2009    249.9    482.5   1301.4   388.66      0.0    241.1      8.8      6.6      0.0    109.8       64    201.8    201.8       60     0.000     0.000     0.000     0.000       98        0        0        0        0       56       31     9.709       57     35.5    3.443     1.11       12        1     2010  Parnassus_SweetPotatoGDDCRO_Sand_S2_rainfed.PRM
  Tot(21)        1       10     2010    297.1    496.2   1299.4   390.77      0.0    292.8      4.3     55.9      0.0    102.8       75    242.1    242.1       62     0.000     0.000     0.000     0.000      109        0        0        0        0        4       31    11.979       62     35.7    4.276     1.24       24        1     2011  Parnassus_SweetPotatoGDDCRO_Sand_S2_rainfed.PRM
  Tot(22)        1       10     2011    208.1    498.0   1296.9   392.75      0.0    205.1      3.0     30.3      0.0    122.5       78    155.5    155.5       43     0.000     0.000     0.000     0.000      100        0        0        0        0       57       47     6.952       40     22.5    1.564     0.56       14        1     2012  Parnassus_SweetPotatoGDDCRO_Sand_S2_rainfed.PRM
  Tot(23)        1       10     2012    277.9    494.6   1299.4   395.19      0.0    252.2     25.7     98.3      0.0     83.4       53    177.1    177.1       50     0.000     0.000     0.000     0.000      100        0        0        0        0       49       42     8.362       48     27.5    2.296     0.88       15        1     2013  Parnassus_SweetPotatoGDDCRO_Sand_S2_rainfed.PRM
  Tot(24)        1       10     2013    139.2    481.4   1306.2   397.58      0.0    139.2      0.0      3.5      0.0     77.9       49    162.6    162.6       46     0.000     0.000     0.000     0.000       97        0        0        0        0       55       42     7.668       45     24.2    1.855     0.77       11        1     2014  Parnassus_SweetPotatoGDDCRO_Sand_S2_rainfed.PRM
  Tot(25)        1       10     2014    197.7    482.6   1298.0   399.74      0.0    197.2      0.5      0.0      0.0     76.1       48    228.4    228.4       64     0.000     0.000     0.000     0.000       98        0        0        0        0       41       28    11.132       65     38.2    4.252     1.40       12        1     2015  Parnassus_SweetPotatoGDDCRO_Sand_S2_rainfed.PRM
  Tot(26)        1       10     2015    272.3    460.6   1300.5   402.52      0.0    272.0      0.3      7.1      0.0    109.1       78    264.8    264.8       75     0.000     0.000     0.000     0.000       96        0        0        0        0        4       20    13.057       76     42.4    5.535     1.48       10        1     2016  Parnassus_SweetPotatoGDDCRO_Sand_S2_rainfed.PRM
  Tot(27)        1       10     2016    308.3    456.4   1299.9   405.21      0.0    306.1      2.2     27.7      0.0    111.5       84    276.1    276.1       78     0.000     0.000     0.000     0.000       98        0        0        0        0        3       17    14.069       81     44.5    6.267     1.62       12        1     2017  Parnassus_SweetPotatoGDDCRO_Sand_S2_rainfed.PRM
  Tot(28)        1       10     2017    602.5    419.9   1294.6   407.21      0.0    584.1     18.4    149.3      0.0    107.2       83    318.9    318.9      100     0.000     0.000     0.000     0.000      100        0        0        0        0        0        0    18.143      100     53.7    9.749     2.30       14        1     2018  Parnassus_SweetPotatoGDDCRO_Sand_S2_rainfed.PRM
  Tot(29)        1       10     2018    172.4    479.4   1295.5   409.21      0.0    167.3      5.1     47.1      0.0    113.2       53    109.3    109.3       37     0.000     0.000     0.000     0.000       98        0        0        0        0       64       52     5.178       30     22.9    1.184     0.53       13        1     2019  Parnassus_SweetPotatoGDDCRO_Sand_S2_rainfed.PRM
