AquaCrop 6.0 (March 2017) - Output created on (date) : 3/5/2021   at (time) : 3:59:14 PM

    RunNr     Day1   Month1    Year1     Rain      ETo       GD     CO2      Irri   Infilt   Runoff    Drain   Upflow        E     E/Ex       Tr      TrW   Tr/Trx    SaltIn   SaltOut    SaltUp  SaltProf     Cycle   SaltStr  FertStr  WeedStr  TempStr   ExpStr   StoStr  BioMass  Brelative   HI     Yield     WPet     DayN   MonthN    YearN
                                           mm       mm    °C.day    ppm        mm       mm       mm       mm       mm       mm        %       mm       mm        %    ton/ha    ton/ha    ton/ha    ton/ha      days       %        %        %        %        %        %    ton/ha        %       %    ton/ha    kg/m3
   Tot(1)        1       10     1990    266.7    480.7   1295.0   355.00      0.0    249.9     16.8    104.9      0.0     90.6       61    167.6    167.6       46     0.000     0.000     0.000     0.000      101        0        0        0        0        1       45     7.044       43     56.4    3.970     1.54       15        1     1991  Parnassus_SweetPotatoGDDCRO_Clay_S2_rainfed.PRM
   Tot(2)        1       10     1991    133.4    514.7   1296.8   356.03      0.0    132.1      1.3      0.5      0.0     90.5       54    267.9    267.9       70     0.000     0.000     0.000     0.000      102        0        0        0        0       12       25    11.137       68     45.1    5.027     1.41       17        1     1992  Parnassus_SweetPotatoGDDCRO_Clay_S2_rainfed.PRM
   Tot(3)        1       10     1992     75.0    522.9   1294.1   356.27      0.0     75.0      0.0      0.0      0.0     91.1       47    199.1    198.2       55     0.000     0.000     0.000     0.000       99        0        0        0        0       63       37     7.721       49     38.9    3.004     1.04       12        1     1993  Parnassus_SweetPotatoGDDCRO_Clay_S2_rainfed.PRM
   Tot(4)        1       10     1993    191.1    507.3   1295.5   357.47      0.0    180.4     10.7      3.3      0.0     92.9       55    294.4    295.3       78     0.000     0.000     0.000     0.000      100        0        0        0        0       31       17    12.332       77     48.9    6.029     1.56       15        1     1994  Parnassus_SweetPotatoGDDCRO_Clay_S2_rainfed.PRM
   Tot(5)        1       10     1994    189.2    512.7   1299.0   359.82      0.0    178.8     10.4      0.0      0.0     94.2       59    303.6    303.6       78     0.000     0.000     0.000     0.000      101        0        0        0        0        5       18    12.774       79     47.3    6.042     1.53       15        1     1995  Parnassus_SweetPotatoGDDCRO_Clay_S2_rainfed.PRM
   Tot(6)        1       10     1995    224.4    492.5   1294.2   361.72      0.0    205.6     18.8     51.2      0.0    132.5       78    235.0    233.0       66     0.000     0.000     0.000     0.000       99        0        0        0        0       62       35     9.733       61     44.0    4.286     1.17       13        1     1996  Parnassus_SweetPotatoGDDCRO_Clay_S2_rainfed.PRM
   Tot(7)        1       10     1996    252.2    518.2   1297.0   363.17      0.0    233.6     18.6      2.7      0.0    111.8       76    340.0    341.9       84     0.000     0.000     0.000     0.000      105        0        0        0        0        8       15    14.428       84     49.0    7.076     1.57       19        1     1997  Parnassus_SweetPotatoGDDCRO_Clay_S2_rainfed.PRM
   Tot(8)        1       10     1997    222.5    492.9   1295.1   365.22      0.0    209.4     13.1     35.0      0.0    121.9       77    269.9    269.9       73     0.000     0.000     0.000     0.000       98        0        0        0        0       51       27    11.451       72     45.6    5.221     1.34       13        1     1998  Parnassus_SweetPotatoGDDCRO_Clay_S2_rainfed.PRM
   Tot(9)        1       10     1998    421.8    472.2   1296.4   367.54      0.0    301.3    120.5    132.2      0.0     98.3       70     93.0     93.0       25     0.000     0.000     0.000     0.000      101        0        0        0        0        1       63     4.182       25     53.7    2.247     1.18       15        1     1999  Parnassus_SweetPotatoGDDCRO_Clay_S2_rainfed.PRM
  Tot(10)        1       10     1999    392.9    510.7   1294.6   368.97      0.0    333.6     59.3    142.4      0.0    126.6       94    248.8    248.8       61     0.000     0.000     0.000     0.000      111        0        0        0        0        0       42    10.980       60     50.1    5.499     1.47       25        1     2000  Parnassus_SweetPotatoGDDCRO_Clay_S2_rainfed.PRM
  Tot(11)        1       10     2000    370.5    492.9   1294.3   370.35      0.0    301.7     68.8     10.4      0.0     92.1       58    353.0    348.6       95     0.000     0.000     0.000     0.000      105        0        0        0        0       31        3    16.545       94     53.3    8.823     1.98       19        1     2001  Parnassus_SweetPotatoGDDCRO_Clay_S2_rainfed.PRM
  Tot(12)        1       10     2001    455.1    474.8   1301.5   372.21      0.0    372.9     82.2    118.5      0.0    114.6       78    217.8    222.2       60     0.000     0.000     0.000     0.000      103        0        0        0        0        0       32    10.488       61     53.8    5.647     1.70       17        1     2002  Parnassus_SweetPotatoGDDCRO_Clay_S2_rainfed.PRM
  Tot(13)        1       10     2002    205.1    482.7   1295.7   374.54      0.0    193.3     11.8     20.1      0.0    111.2       71    270.4    270.4       75     0.000     0.000     0.000     0.000       98        0        0        0        0       55       23    11.955       73     48.4    5.790     1.52       13        1     2003  Parnassus_SweetPotatoGDDCRO_Clay_S2_rainfed.PRM
  Tot(14)        1       10     2003    291.2    498.9   1301.8   376.66      0.0    279.3     11.9      9.0      0.0    102.5       71    369.5    369.5       95     0.000     0.000     0.000     0.000       99        0        0        0        0        1        4    15.898       96     52.7    8.374     1.78       13        1     2004  Parnassus_SweetPotatoGDDCRO_Clay_S2_rainfed.PRM
  Tot(15)        1       10     2004    141.3    544.0   1304.9   378.66      0.0    139.1      2.2      8.0      0.0     94.2       52    249.5    249.5       63     0.000     0.000     0.000     0.000      100        0        0        0        0       60       31     9.971       59     42.3    4.213     1.23       14        1     2005  Parnassus_SweetPotatoGDDCRO_Clay_S2_rainfed.PRM
  Tot(16)        1       10     2005    709.8    451.0   1299.1   380.85      0.0    505.9    203.9    272.6      0.0    116.3       98    179.1    179.1       49     0.000     0.000     0.000     0.000      103        0        0        0        0        0       55     8.758       50     53.8    4.712     1.60       18        1     2006  Parnassus_SweetPotatoGDDCRO_Clay_S2_rainfed.PRM
  Tot(17)        1       10     2006    208.1    489.5   1304.2   382.85      0.0    201.2      6.9      2.0      0.0     84.1       55    329.8    329.8       89     0.000     0.000     0.000     0.000       95        0        0        0        0        4        8    14.681       90     51.1    7.507     1.82        9        1     2007  Parnassus_SweetPotatoGDDCRO_Clay_S2_rainfed.PRM
  Tot(18)        1       10     2007    615.8    469.0   1298.7   384.70      0.0    440.7    175.1    255.7      0.0    119.3       96    199.9    199.9       53     0.000     0.000     0.000     0.000      104        0        0        0        0        0       49     9.327       52     53.8    5.017     1.58       19        1     2008  Parnassus_SweetPotatoGDDCRO_Clay_S2_rainfed.PRM
  Tot(19)        1       10     2008    265.9    487.5   1302.9   386.51      0.0    233.7     32.2     58.4      0.0    113.6       80    215.7    215.7       57     0.000     0.000     0.000     0.000      103        0        0        0        0        0       37     9.933       55     55.5    5.516     1.69       18        1     2009  Parnassus_SweetPotatoGDDCRO_Clay_S2_rainfed.PRM
  Tot(20)        1       10     2009    249.9    482.5   1301.4   388.66      0.0    218.8     31.1      0.1      0.0    122.2       83    290.6    290.6       79     0.000     0.000     0.000     0.000       98        0        0        0        0       12       17    13.509       80     49.1    6.639     1.61       12        1     2010  Parnassus_SweetPotatoGDDCRO_Clay_S2_rainfed.PRM
  Tot(21)        1       10     2010    297.1    496.2   1299.4   390.77      0.0    276.5     20.6     32.5      0.0    124.8       91    299.8    299.8       77     0.000     0.000     0.000     0.000      109        0        0        0        0        0       25    14.871       77     53.5    7.960     1.88       24        1     2011  Parnassus_SweetPotatoGDDCRO_Clay_S2_rainfed.PRM
  Tot(22)        1       10     2011    208.1    498.0   1296.9   392.75      0.0    200.4      7.7     21.4      0.0    130.9       94    267.1    267.1       68     0.000     0.000     0.000     0.000      100        0        0        0        0        0       33    11.772       68     46.7    5.492     1.38       14        1     2012  Parnassus_SweetPotatoGDDCRO_Clay_S2_rainfed.PRM
  Tot(23)        1       10     2012    277.9    494.6   1299.4   395.19      0.0    210.8     67.1     45.3      0.0    102.2       69    285.2    285.2       75     0.000     0.000     0.000     0.000      100        0        0        0        0        1       22    13.354       76     47.6    6.352     1.64       15        1     2013  Parnassus_SweetPotatoGDDCRO_Clay_S2_rainfed.PRM
  Tot(24)        1       10     2013    139.2    481.4   1306.2   397.58      0.0    138.1      1.1      5.0      0.0     86.5       61    269.1    269.1       73     0.000     0.000     0.000     0.000       97        0        0        0        0        5       21    12.488       74     45.5    5.677     1.60       11        1     2014  Parnassus_SweetPotatoGDDCRO_Clay_S2_rainfed.PRM
  Tot(25)        1       10     2014    197.7    482.6   1298.0   399.74      0.0    195.8      1.9      0.0      0.0     91.9       60    318.2    318.8       88     0.000     0.000     0.000     0.000       98        0        0        0        0        8       10    15.266       89     50.7    7.743     1.89       12        1     2015  Parnassus_SweetPotatoGDDCRO_Clay_S2_rainfed.PRM
  Tot(26)        1       10     2015    272.3    460.6   1300.5   402.52      0.0    270.1      2.2      7.9      0.0    122.2       88    338.3    338.3       96     0.000     0.000     0.000     0.000       96        0        0        0        0        1        5    16.516       97     53.0    8.749     1.90       10        1     2016  Parnassus_SweetPotatoGDDCRO_Clay_S2_rainfed.PRM
  Tot(27)        1       10     2016    308.3    456.4   1299.9   405.21      0.0    282.8     25.5    108.9      0.0    122.3       93    108.9    108.9       31     0.000     0.000     0.000     0.000       98        0        0        0        0        0       60     5.158       30     53.8    2.776     1.21       12        1     2017  Parnassus_SweetPotatoGDDCRO_Clay_S2_rainfed.PRM
  Tot(28)        1       10     2017    602.5    419.9   1294.6   407.21      0.0    495.8    106.7    296.6      0.0    120.0       93     64.2     64.2       20     0.000     0.000     0.000     0.000      100        0        0        0        0        0       71     3.375       19     53.7    1.813     0.99       14        1     2018  Parnassus_SweetPotatoGDDCRO_Clay_S2_rainfed.PRM
  Tot(29)        1       10     2018    172.4    479.4   1295.5   409.21      0.0    154.4     18.0     36.7      0.0    120.1       76    217.6    217.6       63     0.000     0.000     0.000     0.000       98        0        0        0        0       58       36    10.341       59     42.4    4.387     1.30       13        1     2019  Parnassus_SweetPotatoGDDCRO_Clay_S2_rainfed.PRM
