AquaCrop 6.0 (March 2017) - Output created on (date) : 3/5/2021   at (time) : 4:09:57 PM

    RunNr     Day1   Month1    Year1     Rain      ETo       GD     CO2      Irri   Infilt   Runoff    Drain   Upflow        E     E/Ex       Tr      TrW   Tr/Trx    SaltIn   SaltOut    SaltUp  SaltProf     Cycle   SaltStr  FertStr  WeedStr  TempStr   ExpStr   StoStr  BioMass  Brelative   HI     Yield     WPet     DayN   MonthN    YearN
                                           mm       mm    °C.day    ppm        mm       mm       mm       mm       mm       mm        %       mm       mm        %    ton/ha    ton/ha    ton/ha    ton/ha      days       %        %        %        %        %        %    ton/ha        %       %    ton/ha    kg/m3
   Tot(1)        1       10     1990    259.0    331.4   1519.6   354.39     99.6    242.1     16.9      9.7      0.0    153.4       92    194.9    191.0      100     0.000     0.000     0.000     0.000       74        0        0        0        0        0        0     8.256      100     56.1    4.628     1.33       15       12     1990  Parnassus_TomatoGDDCRO_ClayLoam_S2_riegoIRR.PRM
   Tot(2)        1       10     1991    123.5    368.7   1536.7   355.61    259.8    112.9     10.6      0.1      0.0    162.4       92    226.4    226.4      100     0.000     0.000     0.000     0.000       75        0        0        0        0        0        0     8.361      100     59.4    4.970     1.28       16       12     1991  Parnassus_TomatoGDDCRO_ClayLoam_S2_riegoIRR.PRM
   Tot(3)        1       10     1992     47.0    377.3   1509.3   356.45    330.5     46.9      0.1      0.0      0.0    162.5       89    230.8    230.5      100     0.000     0.000     0.000     0.000       73        0        0        0        0        0        0     8.116      100     55.9    4.535     1.15       14       12     1992  Parnassus_TomatoGDDCRO_ClayLoam_S2_riegoIRR.PRM
   Tot(4)        1       10     1993    160.1    366.1   1522.8   356.10    244.7    136.5     23.6      9.2      0.0    160.6       91    224.3    226.0      100     0.000     0.000     0.000     0.000       74        0        0        0        0        0        0     8.260      100     57.7    4.763     1.24       15       12     1993  Parnassus_TomatoGDDCRO_ClayLoam_S2_riegoIRR.PRM
   Tot(5)        1       10     1994    167.0    365.6   1525.0   358.83    233.5    145.2     21.8     12.9      0.0    161.4       90    220.7    219.4      100     0.000     0.000     0.000     0.000       74        0        0        0        0        0        0     8.307      100     57.7    4.790     1.25       15       12     1994  Parnassus_TomatoGDDCRO_ClayLoam_S2_riegoIRR.PRM
   Tot(6)        1       10     1995    194.6    356.0   1530.0   360.82    235.4    171.1     23.5     39.8      0.0    157.6       96    225.2    225.1      100     0.000     0.000     0.000     0.000       74        0        0        0        0        0        0     8.352      100     57.7    4.816     1.26       15       12     1995  Parnassus_TomatoGDDCRO_ClayLoam_S2_riegoIRR.PRM
   Tot(7)        1       10     1996    232.3    359.8   1540.1   362.61    201.0    203.0     29.3     37.1      0.0    158.2       94    224.6    224.5      100     0.000     0.000     0.000     0.000       76        0        0        0        0        0        0     8.698      100     57.9    5.036     1.32       17       12     1996  Parnassus_TomatoGDDCRO_ClayLoam_S2_riegoIRR.PRM
   Tot(8)        1       10     1997    189.1    356.9   1530.2   363.73    223.0    166.4     22.7     22.8      0.0    158.9       95    222.9    224.3      100     0.000     0.000     0.000     0.000       74        0        0        0        0        0        0     8.386      100     57.7    4.835     1.27       15       12     1997  Parnassus_TomatoGDDCRO_ClayLoam_S2_riegoIRR.PRM
   Tot(9)        1       10     1998    384.7    335.6   1531.9   366.70    138.7    262.5    122.2     52.1      0.0    147.9       92    205.8    205.4      100     0.000     0.000     0.000     0.000       74        0        0        0        0        0        0     8.519      100     57.7    4.912     1.39       15       12     1998  Parnassus_TomatoGDDCRO_ClayLoam_S2_riegoIRR.PRM
  Tot(10)        1       10     1999    366.2    340.0   1555.8   368.38    127.5    296.3     69.9     79.6      0.0    150.1       96    212.6    215.7      100     0.000     0.000     0.000     0.000       77        0        0        0        0        0        0     8.990      100     61.0    5.484     1.52       19       12     1999  Parnassus_TomatoGDDCRO_ClayLoam_S2_riegoIRR.PRM
  Tot(11)        1       10     2000    277.4    359.2   1531.0   369.55    215.4    209.3     68.1     62.3      0.0    157.7       92    221.0    217.1      100     0.000     0.000     0.000     0.000       75        0        0        0        0        0        0     8.704      100     57.8    5.030     1.33       16       12     2000  Parnassus_TomatoGDDCRO_ClayLoam_S2_riegoIRR.PRM
  Tot(12)        1       10     2001    349.9    346.6   1533.3   371.14    145.2    275.5     74.4     67.5      0.0    158.1       94    210.2    210.6      100     0.000     0.000     0.000     0.000       75        0        0        0        0        0        0     8.773      100     57.8    5.070     1.38       16       12     2001  Parnassus_TomatoGDDCRO_ClayLoam_S2_riegoIRR.PRM
  Tot(13)        1       10     2002    153.2    353.5   1531.3   373.28    247.1    131.5     21.7     22.1      0.0    151.6       92    221.8    222.0      100     0.000     0.000     0.000     0.000       74        0        0        0        0        0        0     8.615      100     57.7    4.968     1.33       15       12     2002  Parnassus_TomatoGDDCRO_ClayLoam_S2_riegoIRR.PRM
  Tot(14)        1       10     2003    234.2    355.3   1519.3   375.80    165.8    206.5     27.7      4.0      0.0    158.6       94    220.0    219.4      100     0.000     0.000     0.000     0.000       73        0        0        0        0        0        0     8.559      100     55.9    4.783     1.26       14       12     2003  Parnassus_TomatoGDDCRO_ClayLoam_S2_riegoIRR.PRM
  Tot(15)        1       10     2004     91.5    402.1   1509.3   377.52    324.5     87.4      4.1      1.5      0.0    168.0       90    252.3    252.1      100     0.000     0.000     0.000     0.000       73        0        0        0        0        0        0     8.600      100     55.9    4.806     1.14       14       12     2004  Parnassus_TomatoGDDCRO_ClayLoam_S2_riegoIRR.PRM
  Tot(16)        1       10     2005    630.3    317.1   1538.6   379.80    115.7    416.7    213.6    204.4      0.0    135.4       99    209.4    210.2      100     0.000     0.000     0.000     0.000       75        0        0        0        0        0        0     8.899      100     59.4    5.290     1.53       16       12     2005  Parnassus_TomatoGDDCRO_ClayLoam_S2_riegoIRR.PRM
  Tot(17)        1       10     2006    196.6    355.4   1507.4   381.90    192.9    172.3     24.3     10.0      0.0    160.4       90    210.9    210.1      100     0.000     0.000     0.000     0.000       72        0        0        0        0        0        0     8.549      100     55.9    4.778     1.29       13       12     2006  Parnassus_TomatoGDDCRO_ClayLoam_S2_riegoIRR.PRM
  Tot(18)        1       10     2007    607.0    323.5   1552.0   383.79     93.8    417.0    190.0    175.4      0.0    139.8       98    207.2    211.3      100     0.000     0.000     0.000     0.000       75        0        0        0        0        0        0     8.947      100     59.5    5.326     1.55       17       12     2007  Parnassus_TomatoGDDCRO_ClayLoam_S2_riegoIRR.PRM
  Tot(19)        1       10     2008    251.8    334.9   1535.4   385.60    159.4    212.0     39.8     31.9      0.0    148.9       94    206.8    203.0      100     0.000     0.000     0.000     0.000       75        0        0        0        0        0       -0     9.041      100     57.8    5.225     1.47       16       12     2008  Parnassus_TomatoGDDCRO_ClayLoam_S2_riegoIRR.PRM
  Tot(20)        1       10     2009    129.6    358.5   1500.6   387.43    245.0    120.2      9.4      0.6      0.0    160.2       93    219.8    218.9      100     0.000     0.000     0.000     0.000       72        0        0        0        0        0        0     8.623      100     54.1    4.666     1.23       13       12     2009  Parnassus_TomatoGDDCRO_ClayLoam_S2_riegoIRR.PRM
  Tot(21)        1       10     2010    279.4    338.9   1539.5   389.90    155.7    234.9     44.5     25.5      0.0    146.0       95    215.0    216.8      100     0.000     0.000     0.000     0.000       77        0        0        0        0        0        0     9.449      100     58.0    5.482     1.52       18       12     2010  Parnassus_TomatoGDDCRO_ClayLoam_S2_riegoIRR.PRM
  Tot(22)        1       10     2011    195.3    358.0   1529.1   391.65    207.4    177.4     17.9     15.6      0.0    158.5       97    226.8    225.6      100     0.000     0.000     0.000     0.000       74        0        0        0        0        0        0     8.987      100     57.7    5.182     1.35       15       12     2011  Parnassus_TomatoGDDCRO_ClayLoam_S2_riegoIRR.PRM
  Tot(23)        1       10     2012    270.7    348.9   1538.5   393.85    204.4    185.3     85.4     38.4      0.0    152.2       93    215.5    215.8      100     0.000     0.000     0.000     0.000       75        0        0        0        0        0        0     9.183      100     57.8    5.307     1.44       16       12     2012  Parnassus_TomatoGDDCRO_ClayLoam_S2_riegoIRR.PRM
  Tot(24)        1       10     2013    125.8    346.1   1520.9   396.52    229.4    119.6      6.2      0.6      0.0    151.3       93    213.4    213.2      100     0.000     0.000     0.000     0.000       73        0        0        0        0        0        0     8.919      100     55.9    4.984     1.37       14       12     2013  Parnassus_TomatoGDDCRO_ClayLoam_S2_riegoIRR.PRM
  Tot(25)        1       10     2014    161.8    351.0   1514.2   398.65    203.0    153.2      8.6      0.0      0.0    156.7       91    209.5    211.3      100     0.000     0.000     0.000     0.000       73        0        0        0        0        0        0     8.951      100     55.9    5.002     1.37       14       12     2014  Parnassus_TomatoGDDCRO_ClayLoam_S2_riegoIRR.PRM
  Tot(26)        1       10     2015    244.1    336.0   1510.9   400.83    111.6    231.6     12.5      1.4      0.0    156.8       95    201.7    200.5      100     0.000     0.000     0.000     0.000       72        0        0        0        0        0        0     8.874      100     55.9    4.959     1.38       13       12     2015  Parnassus_TomatoGDDCRO_ClayLoam_S2_riegoIRR.PRM
  Tot(27)        1       10     2016    295.2    322.4   1518.2   404.21     77.0    267.5     27.7     16.6      0.0    148.6       96    196.4    196.8      100     0.000     0.000     0.000     0.000       73        0        0        0        0        0        0     9.069      100     55.9    5.068     1.47       14       12     2016  Parnassus_TomatoGDDCRO_ClayLoam_S2_riegoIRR.PRM
  Tot(28)        1       10     2017    464.7    303.4   1537.8   406.21     31.9    388.1     76.6     88.5      0.0    145.1       97    180.3    179.9      100     0.000     0.000     0.000     0.000       74        0        0        0        0        0        0     9.279      100     59.4    5.516     1.70       15       12     2017  Parnassus_TomatoGDDCRO_ClayLoam_S2_riegoIRR.PRM
  Tot(29)        1       10     2018    148.1    346.5   1525.5   408.21    254.9    126.2     21.9     27.8      0.0    152.2       96    217.2    216.7      100     0.000     0.000     0.000     0.000       74        0        0        0        0        0        0     9.219      100     57.7    5.316     1.44       15       12     2018  Parnassus_TomatoGDDCRO_ClayLoam_S2_riegoIRR.PRM
