AquaCrop 6.0 (March 2017) - Output created on (date) : 3/5/2021   at (time) : 4:11:43 PM

    RunNr     Day1   Month1    Year1     Rain      ETo       GD     CO2      Irri   Infilt   Runoff    Drain   Upflow        E     E/Ex       Tr      TrW   Tr/Trx    SaltIn   SaltOut    SaltUp  SaltProf     Cycle   SaltStr  FertStr  WeedStr  TempStr   ExpStr   StoStr  BioMass  Brelative   HI     Yield     WPet     DayN   MonthN    YearN
                                           mm       mm    °C.day    ppm        mm       mm       mm       mm       mm       mm        %       mm       mm        %    ton/ha    ton/ha    ton/ha    ton/ha      days       %        %        %        %        %        %    ton/ha        %       %    ton/ha    kg/m3
   Tot(1)       31        5     1990     98.3    447.1   1504.3   354.39      0.0     98.0      0.3      7.6      0.0     95.9       27     61.7     61.7       51     0.000     0.000     0.000     0.000       72        0        0        0        0       62       40     1.775       23     42.1    0.748     0.47       12        8     1990  Parnassus_TomatoGDDCRO_Sand_S1_rainfed.PRM
   Tot(2)       31        5     1991     41.1    442.2   1520.2   355.61      0.0     41.1      0.0      0.0      0.0     57.0       14     47.3     47.2       62     0.000     0.000     0.000     0.000       73        0        0        0        0       70       31     1.409       18     50.1    0.705     0.68       13        8     1991  Parnassus_TomatoGDDCRO_Sand_S1_rainfed.PRM
   Tot(3)       31        5     1992     80.1    442.4   1508.4   356.45      0.0     80.1      0.0      0.0      0.0     89.5       24     56.6     56.7       54     0.000     0.000     0.000     0.000       72        0        0        0        0       65       39     1.653       21     43.9    0.726     0.50       12        8     1992  Parnassus_TomatoGDDCRO_Sand_S1_rainfed.PRM
   Tot(4)       31        5     1993    110.0    432.2   1519.6   356.10      0.0    109.3      0.7     14.6      0.0    103.7       30     58.7     58.6       47     0.000     0.000     0.000     0.000       73        0        0        0        0       63       41     1.757       22     44.6    0.784     0.48       13        8     1993  Parnassus_TomatoGDDCRO_Sand_S1_rainfed.PRM
   Tot(5)       31        5     1994     63.2    491.3   1511.7   358.83      0.0     63.2      0.0      0.0      0.0     78.5       16     42.9     42.6       69     0.000     0.000     0.000     0.000       72        0        0        0        0       74       24     1.125       14     51.6    0.580     0.48       12        8     1994  Parnassus_TomatoGDDCRO_Sand_S1_rainfed.PRM
   Tot(6)       31        5     1995    158.5    431.8   1496.4   360.82      0.0    158.5      0.0      0.0      0.0    152.9       41     57.4     57.1       59     0.000     0.000     0.000     0.000       71        0        0        0        0       67       32     1.701       22     46.4    0.789     0.38       11        8     1995  Parnassus_TomatoGDDCRO_Sand_S1_rainfed.PRM
   Tot(7)       31        5     1996     99.5    456.5   1508.3   362.61      0.0     99.5      0.0      0.0      0.0    114.4       27     47.4     47.9       63     0.000     0.000     0.000     0.000       72        0        0        0        0       71       30     1.370       17     49.2    0.674     0.42       12        8     1996  Parnassus_TomatoGDDCRO_Sand_S1_rainfed.PRM
   Tot(8)       31        5     1997    188.1    418.7   1521.1   363.73      0.0    177.6     10.5     53.7      0.0    126.4       40     63.7     63.7       45     0.000     0.000     0.000     0.000       73        0        0        0        0       61       43     2.016       25     44.0    0.887     0.47       13        8     1997  Parnassus_TomatoGDDCRO_Sand_S1_rainfed.PRM
   Tot(9)       31        5     1998    141.0    439.7   1489.9   366.70      0.0    140.7      0.3      0.0      0.0    109.8       37     99.6     99.6       56     0.000     0.000     0.000     0.000       70        0        0        0        0       53       28     2.966       38     44.6    1.322     0.63       10        8     1998  Parnassus_TomatoGDDCRO_Sand_S1_rainfed.PRM
  Tot(10)       31        5     1999    167.5    436.3   1519.3   368.38      0.0    167.2      0.3      4.8      0.0    134.6       51     96.7     96.7       47     0.000     0.000     0.000     0.000       73        0        0        0        0       51       37     3.131       38     42.9    1.343     0.58       13        8     1999  Parnassus_TomatoGDDCRO_Sand_S1_rainfed.PRM
  Tot(11)       31        5     2000    159.9    440.4   1516.9   369.55      0.0    158.5      1.4     18.9      0.0    123.0       35     81.8     81.5       61     0.000     0.000     0.000     0.000       73        0        0        0        0       60       28     2.492       30     48.3    1.205     0.59       13        8     2000  Parnassus_TomatoGDDCRO_Sand_S1_rainfed.PRM
  Tot(12)       31        5     2001     65.5    454.1   1503.5   371.14      0.0     65.5      0.0      0.0      0.0     79.0       18     43.3     43.3       71     0.000     0.000     0.000     0.000       72        0        0        0        0       73       23     1.273       16     52.0    0.662     0.54       12        8     2001  Parnassus_TomatoGDDCRO_Sand_S1_rainfed.PRM
  Tot(13)       31        5     2002    160.1    420.5   1530.3   373.28      0.0    154.7      5.4     59.0      0.0    106.1       30     55.1     55.5       55     0.000     0.000     0.000     0.000       74        0        0        0        0       66       41     1.752       21     44.5    0.780     0.48       14        8     2002  Parnassus_TomatoGDDCRO_Sand_S1_rainfed.PRM
  Tot(14)       31        5     2003    175.1    436.9   1504.5   375.80      0.0    171.9      3.2     17.9      0.0    137.2       45     83.3     83.0       49     0.000     0.000     0.000     0.000       72        0        0        0        0       56       37     2.649       32     44.3    1.174     0.53       12        8     2003  Parnassus_TomatoGDDCRO_Sand_S1_rainfed.PRM
  Tot(15)       31        5     2004    126.0    453.4   1510.5   377.52      0.0    126.0      0.0      0.0      0.0    107.1       25     45.8     45.2       71     0.000     0.000     0.000     0.000       72        0        0        0        0       73       23     1.372       16     52.0    0.713     0.47       12        8     2004  Parnassus_TomatoGDDCRO_Sand_S1_rainfed.PRM
  Tot(16)       31        5     2005    578.5    378.7   1517.3   379.80      0.0    478.3    100.2    246.1      0.0    130.7       73    168.7    169.3       73     0.000     0.000     0.000     0.000       72        0        0        0        0        3       18     6.146       73     49.5    3.045     1.02       12        8     2005  Parnassus_TomatoGDDCRO_Sand_S1_rainfed.PRM
  Tot(17)       31        5     2006    250.6    418.0   1511.5   381.90      0.0    242.6      8.0     70.0      0.0    153.2       52     85.6     85.7       53     0.000     0.000     0.000     0.000       72        0        0        0        0       55       35     2.766       33     44.9    1.242     0.52       12        8     2006  Parnassus_TomatoGDDCRO_Sand_S1_rainfed.PRM
  Tot(18)       31        5     2007    168.7    431.2   1492.9   383.79      0.0    165.9      2.8      3.5      0.0    113.4       32     63.2     62.9       57     0.000     0.000     0.000     0.000       71        0        0        0        0       65       34     1.963       24     45.8    0.900     0.51       11        8     2007  Parnassus_TomatoGDDCRO_Sand_S1_rainfed.PRM
  Tot(19)       31        5     2008    190.0    424.7   1504.3   385.60      0.0    180.1      9.9     10.0      0.0    114.6       39    118.9    118.7       69     0.000     0.000     0.000     0.000       72        0        0        0        0       50       23     3.809       45     50.8    1.934     0.83       12        8     2008  Parnassus_TomatoGDDCRO_Sand_S1_rainfed.PRM
  Tot(20)       31        5     2009    134.3    422.7   1524.1   387.43      0.0    134.3      0.0      0.6      0.0    112.4       45     90.7     91.5       49     0.000     0.000     0.000     0.000       73        0        0        0        0       51       42     3.019       35     39.7    1.198     0.59       13        8     2009  Parnassus_TomatoGDDCRO_Sand_S1_rainfed.PRM
  Tot(21)       31        5     2010    311.9    381.0   1519.2   389.90      0.0    307.1      4.8     42.8      0.0    114.9       58    203.8    201.6       94     0.000     0.000     0.000     0.000       72        0        0        0        0        7        3     7.760       90     55.0    4.268     1.34       12        8     2010  Parnassus_TomatoGDDCRO_Sand_S1_rainfed.PRM
  Tot(22)       31        5     2011    425.5    387.0   1523.6   391.65      0.0    392.0     33.5    143.9      0.0    123.7       65    185.7    186.6       80     0.000     0.000     0.000     0.000       73        0        0        0        0       31       13     6.684       77     54.1    3.615     1.17       13        8     2011  Parnassus_TomatoGDDCRO_Sand_S1_rainfed.PRM
  Tot(23)       31        5     2012    235.4    426.4   1509.8   393.85      0.0    227.1      8.3     20.2      0.0    122.6       44    107.5    105.8       59     0.000     0.000     0.000     0.000       72        0        0        0        0       55       27     3.669       43     46.8    1.718     0.75       12        8     2012  Parnassus_TomatoGDDCRO_Sand_S1_rainfed.PRM
  Tot(24)       31        5     2013    132.0    411.4   1505.7   396.52      0.0    132.0      0.0      1.6      0.0    106.0       42     92.0     94.8       50     0.000     0.000     0.000     0.000       72        0        0        0        0       52       36     3.245       37     42.0    1.362     0.69       12        8     2013  Parnassus_TomatoGDDCRO_Sand_S1_rainfed.PRM
  Tot(25)       31        5     2014     83.9    429.0   1504.7   398.65      0.0     83.9      0.0      0.0      0.0     95.6       26     52.5     52.7       54     0.000     0.000     0.000     0.000       72        0        0        0        0       66       39     1.755       20     45.0    0.789     0.53       12        8     2014  Parnassus_TomatoGDDCRO_Sand_S1_rainfed.PRM
  Tot(26)       31        5     2015    137.6    419.2   1504.2   400.83      0.0    134.5      3.1     24.0      0.0    122.2       34     53.6     53.6       55     0.000     0.000     0.000     0.000       72        0        0        0        0       67       39     1.838       21     45.4    0.834     0.47       12        8     2015  Parnassus_TomatoGDDCRO_Sand_S1_rainfed.PRM
  Tot(27)       31        5     2016    209.3    409.8   1498.1   404.21      0.0    205.3      4.0     29.4      0.0    149.4       51     80.9     80.1       55     0.000     0.000     0.000     0.000       71        0        0        0        0       56       35     2.739       32     44.5    1.220     0.53       11        8     2016  Parnassus_TomatoGDDCRO_Sand_S1_rainfed.PRM
  Tot(28)       31        5     2017    227.6    402.3   1510.7   406.21      0.0    219.5      8.1     82.5      0.0    121.6       46     79.7     80.2       50     0.000     0.000     0.000     0.000       72        0        0        0        0       56       36     2.939       33     42.5    1.250     0.62       12        8     2017  Parnassus_TomatoGDDCRO_Sand_S1_rainfed.PRM
  Tot(29)       31        5     2018     98.2    416.3   1520.5   408.21      0.0     98.2      0.0      0.0      0.0    107.5       33     57.6     57.8       52     0.000     0.000     0.000     0.000       71        0        0        0        0       62       41     2.077       23     39.6    0.822     0.50       13        8     2018  Parnassus_TomatoGDDCRO_Sand_S1_rainfed.PRM
