AquaCrop 6.0 (March 2017) - Output created on (date) : 3/5/2021   at (time) : 3:50:29 PM

    RunNr     Day1   Month1    Year1     Rain      ETo       GD     CO2      Irri   Infilt   Runoff    Drain   Upflow        E     E/Ex       Tr      TrW   Tr/Trx    SaltIn   SaltOut    SaltUp  SaltProf     Cycle   SaltStr  FertStr  WeedStr  TempStr   ExpStr   StoStr  BioMass  Brelative   HI     Yield     WPet     DayN   MonthN    YearN
                                           mm       mm    °C.day    ppm        mm       mm       mm       mm       mm       mm        %       mm       mm        %    ton/ha    ton/ha    ton/ha    ton/ha      days       %        %        %        %        %        %    ton/ha        %       %    ton/ha    kg/m3
   Tot(1)       31       10     1990    193.9    490.9   1735.7   355.00      0.0    188.6      5.3     21.5      0.0    182.7       75    192.5    192.2       70     0.000     0.000     0.000     0.000      100        0        0        0        0        0       39     5.697       70     26.5    1.510     0.40       13        2     1991  Parnassus_GroundnutGDDCRO_Clay_S2_rainfed.PRM
   Tot(2)       31       10     1991    102.3    497.0   1733.8   356.03      0.0    100.2      2.1      6.4      0.0    122.8       46    187.1    187.0       73     0.000     0.000     0.000     0.000      100        0        0        0        0       10       26     5.873       71     26.5    1.556     0.50       13        2     1992  Parnassus_GroundnutGDDCRO_Clay_S2_rainfed.PRM
   Tot(3)       31       10     1992    103.8    516.7   1723.7   356.27      0.0    103.4      0.4      0.0      0.0     95.0       34    218.7    217.7       81     0.000     0.000     0.000     0.000       98        0        0        0        0       38       13     6.475       80     26.5    1.716     0.55       11        2     1993  Parnassus_GroundnutGDDCRO_Clay_S2_rainfed.PRM
   Tot(4)       31       10     1993    168.5    503.2   1730.5   357.47      0.0    160.2      8.3     14.7      0.0    146.3       55    215.3    216.2       80     0.000     0.000     0.000     0.000       99        0        0        0        0        0       19     6.734       83     26.5    1.785     0.49       12        2     1994  Parnassus_GroundnutGDDCRO_Clay_S2_rainfed.PRM
   Tot(5)       31       10     1994    161.9    499.9   1728.9   359.82      0.0    147.9     14.0     29.0      0.0    146.7       56    186.8    187.0       71     0.000     0.000     0.000     0.000       99        0        0        0        0       16       28     5.686       69     26.5    1.507     0.45       12        2     1995  Parnassus_GroundnutGDDCRO_Clay_S2_rainfed.PRM
   Tot(6)       31       10     1995    106.4    510.0   1726.9   361.72      0.0    106.4      0.0      0.0      0.0    130.4       48    194.8    194.6       73     0.000     0.000     0.000     0.000       98        0        0        0        0       10       19     5.911       72     26.5    1.567     0.48       11        2     1996  Parnassus_GroundnutGDDCRO_Clay_S2_rainfed.PRM
   Tot(7)       31       10     1996    190.5    515.1   1749.4   363.17      0.0    175.9     14.6     44.3      0.0    156.6       58    184.4    184.7       70     0.000     0.000     0.000     0.000      101        0        0        0        0       37       35     5.587       66     26.5    1.480     0.43       15        2     1997  Parnassus_GroundnutGDDCRO_Clay_S2_rainfed.PRM
   Tot(8)       31       10     1997    151.6    485.5   1716.1   365.22      0.0    150.8      0.8      0.0      0.0    133.1       52    230.9    229.9       89     0.000     0.000     0.000     0.000       97        0        0        0        0        3        9     7.320       90     26.5    1.940     0.53       10        2     1998  Parnassus_GroundnutGDDCRO_Clay_S2_rainfed.PRM
   Tot(9)       31       10     1998    275.0    485.8   1745.3   367.54      0.0    221.9     53.1     24.3      0.0    168.1       66    215.8    216.7       83     0.000     0.000     0.000     0.000       99        0        0        0        0        0       18     6.884       82     26.5    1.824     0.48       13        2     1999  Parnassus_GroundnutGDDCRO_Clay_S2_rainfed.PRM
  Tot(10)       31       10     1999    189.8    504.5   1738.6   368.97      0.0    175.5     14.3     42.7      0.0    155.1       59    188.9    188.9       70     0.000     0.000     0.000     0.000      105        0        0        0        0        8       31     6.204       69     26.5    1.644     0.48       19        2     2000  Parnassus_GroundnutGDDCRO_Clay_S2_rainfed.PRM
  Tot(11)       31       10     2000    323.5    476.7   1732.7   370.35      0.0    270.8     52.7     77.8      0.0    152.0       59    105.4    101.7       42     0.000     0.000     0.000     0.000      102        0        0        0        0        0       47     3.486       40     25.0    0.872     0.34       15        2     2001  Parnassus_GroundnutGDDCRO_Clay_S2_rainfed.PRM
  Tot(12)       31       10     2001    317.4    466.0   1737.2   372.21      0.0    261.9     55.5     67.9      0.0    150.9       62    242.9    244.6       97     0.000     0.000     0.000     0.000      100        0        0        0        0        0        8     8.255       97     26.5    2.188     0.56       13        2     2002  Parnassus_GroundnutGDDCRO_Clay_S2_rainfed.PRM
  Tot(13)       31       10     2002    186.4    476.6   1720.3   374.54      0.0    178.8      7.6      0.0      0.0    127.7       50    247.8    247.4       98     0.000     0.000     0.000     0.000       97        0        0        0        0        2        3     8.187       98     26.5    2.170     0.58       10        2     2003  Parnassus_GroundnutGDDCRO_Clay_S2_rainfed.PRM
  Tot(14)       31       10     2003    224.4    504.3   1718.7   376.66      0.0    213.7     10.7     19.5      0.0    170.2       64    224.3    224.7       83     0.000     0.000     0.000     0.000       98        0        0        0        0        0       18     7.036       83     26.5    1.864     0.47       11        2     2004  Parnassus_GroundnutGDDCRO_Clay_S2_rainfed.PRM
  Tot(15)       31       10     2004    125.6    545.9   1726.8   378.66      0.0    125.5      0.1      0.2      0.0    122.1       41    225.3    227.1       80     0.000     0.000     0.000     0.000      101        0        0        0        0        0       13     7.225       82     26.5    1.915     0.55       14        2     2005  Parnassus_GroundnutGDDCRO_Clay_S2_rainfed.PRM
  Tot(16)       31       10     2005    231.6    469.8   1739.5   380.85      0.0    230.1      1.5      1.3      0.0    166.0       66    241.0    241.4       98     0.000     0.000     0.000     0.000      100        0        0        0        0        0        7     8.586       98     26.5    2.275     0.56       14        2     2006  Parnassus_GroundnutGDDCRO_Clay_S2_rainfed.PRM
  Tot(17)       31       10     2006    158.9    493.9   1710.2   382.85      0.0    152.2      6.7     17.8      0.0    150.2       58    189.9    189.1       73     0.000     0.000     0.000     0.000       96        0        0        0        0        7       29     5.872       71     26.5    1.556     0.46        8        2     2007  Parnassus_GroundnutGDDCRO_Clay_S2_rainfed.PRM
  Tot(18)       31       10     2007    296.3    482.9   1746.1   384.70      0.0    216.9     79.4     73.7      0.0    150.1       60    207.6    208.4       80     0.000     0.000     0.000     0.000      100        0        0        0        0        0       24     7.151       81     26.5    1.895     0.53       14        2     2008  Parnassus_GroundnutGDDCRO_Clay_S2_rainfed.PRM
  Tot(19)       31       10     2008    174.1    487.5   1735.1   386.51      0.0    150.2     23.9     48.2      0.0    130.5       52    188.4    188.2       72     0.000     0.000     0.000     0.000      101        0        0        0        0       10       27     6.401       72     26.5    1.696     0.53       14        2     2009  Parnassus_GroundnutGDDCRO_Clay_S2_rainfed.PRM
  Tot(20)       31       10     2009    163.6    475.3   1707.3   388.66      0.0    141.1     22.5      0.0      0.0    102.6       40    234.5    232.4       95     0.000     0.000     0.000     0.000       97        0        0        0        0        0        5     8.069       94     26.3    2.123     0.63       10        2     2010  Parnassus_GroundnutGDDCRO_Clay_S2_rainfed.PRM
  Tot(21)       31       10     2010    158.5    486.7   1747.6   390.77      0.0    153.0      5.5     11.6      0.0    140.0       54    215.9    218.3       84     0.000     0.000     0.000     0.000      104        0        0        0        0        0       15     7.922       86     26.5    2.099     0.59       18        2     2011  Parnassus_GroundnutGDDCRO_Clay_S2_rainfed.PRM
  Tot(22)       31       10     2011     66.4    501.5   1721.4   392.75      0.0     66.1      0.3      3.2      0.0     96.1       35    187.4    187.2       73     0.000     0.000     0.000     0.000       98        0        0        0        0       14       19     6.281       72     26.5    1.665     0.59       11        2     2012  Parnassus_GroundnutGDDCRO_Clay_S2_rainfed.PRM
  Tot(23)       31       10     2012     90.4    489.3   1724.0   395.19      0.0     88.5      1.9      4.3      0.0    114.7       44    190.2    190.1       74     0.000     0.000     0.000     0.000       98        0        0        0        0        6       22     6.368       73     26.5    1.688     0.55       11        2     2013  Parnassus_GroundnutGDDCRO_Clay_S2_rainfed.PRM
  Tot(24)       31       10     2013    122.3    477.4   1719.0   397.58      0.0    120.3      2.0      6.4      0.0    122.5       48    210.4    210.1       83     0.000     0.000     0.000     0.000       96        0        0        0        0        1       14     7.186       83     26.5    1.904     0.57        9        2     2014  Parnassus_GroundnutGDDCRO_Clay_S2_rainfed.PRM
  Tot(25)       31       10     2014    160.9    467.7   1719.9   399.74      0.0    158.8      2.1      0.0      0.0    147.5       59    214.1    213.1       87     0.000     0.000     0.000     0.000       97        0        0        0        0        0       12     7.555       86     26.5    2.002     0.55       10        2     2015  Parnassus_GroundnutGDDCRO_Clay_S2_rainfed.PRM
  Tot(26)       31       10     2015    193.2    454.3   1719.8   402.52      0.0    190.5      2.7      7.0      0.0    186.0       78    209.4    210.1       86     0.000     0.000     0.000     0.000       96        0        0        0        0        0       18     7.565       87     26.5    2.005     0.51        9        2     2016  Parnassus_GroundnutGDDCRO_Clay_S2_rainfed.PRM
  Tot(27)       31       10     2016    170.3    467.5   1715.0   405.21      0.0    165.6      4.7     18.7      0.0    169.0       70    190.5    191.1       76     0.000     0.000     0.000     0.000       97        0        0        0        0        0       29     6.678       75     26.5    1.770     0.49       10        2     2017  Parnassus_GroundnutGDDCRO_Clay_S2_rainfed.PRM
  Tot(28)       31       10     2017    435.1    411.7   1735.3   407.21      0.0    378.8     56.3    135.0      0.0    197.0       92     78.5     76.7       35     0.000     0.000     0.000     0.000       99        0        0        0        0        0       65     3.104       34     25.0    0.776     0.28       12        2     2018  Parnassus_GroundnutGDDCRO_Clay_S2_rainfed.PRM
  Tot(29)       31       10     2018     75.0    473.1   1716.0   409.21      0.0     75.0      0.0      1.4      0.0     89.0       35    200.8    202.3       81     0.000     0.000     0.000     0.000       97        0        0        0        0        2       13     7.221       81     26.5    1.914     0.66       10        2     2019  Parnassus_GroundnutGDDCRO_Clay_S2_rainfed.PRM
