AquaCrop 6.0 (March 2017) - Output created on (date) : 3/5/2021   at (time) : 3:50:55 PM

    RunNr     Day1   Month1    Year1     Rain      ETo       GD     CO2      Irri   Infilt   Runoff    Drain   Upflow        E     E/Ex       Tr      TrW   Tr/Trx    SaltIn   SaltOut    SaltUp  SaltProf     Cycle   SaltStr  FertStr  WeedStr  TempStr   ExpStr   StoStr  BioMass  Brelative   HI     Yield     WPet     DayN   MonthN    YearN
                                           mm       mm    °C.day    ppm        mm       mm       mm       mm       mm       mm        %       mm       mm        %    ton/ha    ton/ha    ton/ha    ton/ha      days       %        %        %        %        %        %    ton/ha        %       %    ton/ha    kg/m3
   Tot(1)       31       10     1990    193.9    490.9   1735.7   355.00    301.9    188.8      5.1     21.4      0.0    227.2       94    278.9    275.2      100     0.000     0.000     0.000     0.000      100        0        0        0        0        0        0     8.170      100     25.0    2.042     0.40       13        2     1991  Parnassus_GroundnutGDDCRO_Clay_S2_riegoIRR.PRM
   Tot(2)       31       10     1991    102.3    497.0   1733.8   356.03    378.3     94.7      7.6     13.0      0.0    230.0       88    266.6    266.4      100     0.000     0.000     0.000     0.000      100        0        0        0        0        0        0     8.238      100     25.0    2.059     0.41       13        2     1992  Parnassus_GroundnutGDDCRO_Clay_S2_riegoIRR.PRM
   Tot(3)       31       10     1992    103.8    516.7   1723.7   356.27    377.2     96.0      7.8      0.0      0.0    236.4       85    273.7    273.7      100     0.000     0.000     0.000     0.000       98        0        0        0        0        0        0     8.057      100     25.0    2.014     0.39       11        2     1993  Parnassus_GroundnutGDDCRO_Clay_S2_riegoIRR.PRM
   Tot(4)       31       10     1993    168.5    503.2   1730.5   357.47    333.0    148.6     19.9     19.6      0.0    229.9       86    268.2    267.7      100     0.000     0.000     0.000     0.000       99        0        0        0        0        0        0     8.157      100     25.0    2.039     0.41       12        2     1994  Parnassus_GroundnutGDDCRO_Clay_S2_riegoIRR.PRM
   Tot(5)       31       10     1994    161.9    499.9   1728.9   359.82    359.6    142.6     19.3     25.1      0.0    239.5       93    274.0    274.3      100     0.000     0.000     0.000     0.000       99        0        0        0        0        0        0     8.211      100     25.0    2.053     0.40       12        2     1995  Parnassus_GroundnutGDDCRO_Clay_S2_riegoIRR.PRM
   Tot(6)       31       10     1995    106.4    510.0   1726.9   361.72    368.7    106.0      0.4      0.0      0.0    233.8       88    277.7    277.9      100     0.000     0.000     0.000     0.000       98        0        0        0        0        0        0     8.163      100     25.0    2.041     0.40       11        2     1996  Parnassus_GroundnutGDDCRO_Clay_S2_riegoIRR.PRM
   Tot(7)       31       10     1996    190.5    515.1   1749.4   363.17    361.2    167.3     23.2     48.3      0.0    237.6       90    282.6    286.5      100     0.000     0.000     0.000     0.000      101        0        0        0        0        0        0     8.444      100     25.0    2.111     0.41       15        2     1997  Parnassus_GroundnutGDDCRO_Clay_S2_riegoIRR.PRM
   Tot(8)       31       10     1997    151.6    485.5   1716.1   365.22    316.6    141.0     10.6      0.0      0.0    235.2       91    259.1    255.2      100     0.000     0.000     0.000     0.000       97        0        0        0        0        0        0     8.151      100     25.0    2.038     0.41       10        2     1998  Parnassus_GroundnutGDDCRO_Clay_S2_riegoIRR.PRM
   Tot(9)       31       10     1998    275.0    485.8   1745.3   367.54    277.1    212.7     62.3     32.3      0.0    236.7       93    259.8    263.7      100     0.000     0.000     0.000     0.000       99        0        0        0        0        0        0     8.405      100     25.0    2.101     0.43       13        2     1999  Parnassus_GroundnutGDDCRO_Clay_S2_riegoIRR.PRM
  Tot(10)       31       10     1999    189.8    504.5   1738.6   368.97    347.0    170.8     19.0     46.2      0.0    236.0       91    275.4    275.4      100     0.000     0.000     0.000     0.000      105        0        0        0        0        0        0     8.928      100     25.0    2.232     0.44       19        2     2000  Parnassus_GroundnutGDDCRO_Clay_S2_riegoIRR.PRM
  Tot(11)       31       10     2000    323.5    476.7   1732.7   370.35    248.5    254.6     68.9     62.3      0.0    227.7       89    250.0    246.2      100     0.000     0.000     0.000     0.000      102        0        0        0        0        0        0     8.726      100     25.0    2.182     0.46       15        2     2001  Parnassus_GroundnutGDDCRO_Clay_S2_riegoIRR.PRM
  Tot(12)       31       10     2001    317.4    466.0   1737.2   372.21    261.9    248.3     69.1     67.6      0.0    229.4       94    250.2    250.3      100     0.000     0.000     0.000     0.000      100        0        0        0        0        0        0     8.477      100     25.0    2.119     0.44       13        2     2002  Parnassus_GroundnutGDDCRO_Clay_S2_riegoIRR.PRM
  Tot(13)       31       10     2002    186.4    476.6   1720.3   374.54    282.7    160.8     25.6      0.0      0.0    227.9       89    252.5    252.4      100     0.000     0.000     0.000     0.000       97        0        0        0        0        0        0     8.325      100     25.0    2.081     0.43       10        2     2003  Parnassus_GroundnutGDDCRO_Clay_S2_riegoIRR.PRM
  Tot(14)       31       10     2003    224.4    504.3   1718.7   376.66    299.1    198.2     26.2     19.0      0.0    244.0       92    270.7    270.3      100     0.000     0.000     0.000     0.000       98        0        0        0        0        0        0     8.499      100     25.0    2.125     0.41       11        2     2004  Parnassus_GroundnutGDDCRO_Clay_S2_riegoIRR.PRM
  Tot(15)       31       10     2004    125.6    545.9   1726.8   378.66    388.7    122.2      3.4      0.1      0.0    264.6       89    283.0    283.5      100     0.000     0.000     0.000     0.000      101        0        0        0        0        0        0     8.832      100     25.0    2.208     0.40       14        2     2005  Parnassus_GroundnutGDDCRO_Clay_S2_riegoIRR.PRM
  Tot(16)       31       10     2005    231.6    469.8   1739.5   380.85    234.8    209.5     22.1      1.0      0.0    231.3       92    245.9    249.6      100     0.000     0.000     0.000     0.000      100        0        0        0        0        0        0     8.756      100     25.0    2.189     0.46       14        2     2006  Parnassus_GroundnutGDDCRO_Clay_S2_riegoIRR.PRM
  Tot(17)       31       10     2006    158.9    493.9   1710.2   382.85    341.7    141.4     17.5     18.7      0.0    230.5       90    269.4    265.8      100     0.000     0.000     0.000     0.000       96        0        0        0        0        0        0     8.244      100     25.0    2.061     0.41        8        2     2007  Parnassus_GroundnutGDDCRO_Clay_S2_riegoIRR.PRM
  Tot(18)       31       10     2007    296.3    482.9   1746.1   384.70    317.6    205.8     90.5     73.6      0.0    229.3       92    260.5    264.0      100     0.000     0.000     0.000     0.000      100        0        0        0        0        0        0     8.791      100     25.0    2.198     0.45       14        2     2008  Parnassus_GroundnutGDDCRO_Clay_S2_riegoIRR.PRM
  Tot(19)       31       10     2008    174.1    487.5   1735.1   386.51    361.4    148.7     25.4     47.2      0.0    229.9       93    270.0    266.4      100     0.000     0.000     0.000     0.000      101        0        0        0        0        0        0     8.908      100     25.0    2.227     0.45       14        2     2009  Parnassus_GroundnutGDDCRO_Clay_S2_riegoIRR.PRM
  Tot(20)       31       10     2009    163.6    475.3   1707.3   388.66    335.0    116.6     47.0     13.5      0.0    227.9       88    247.6    247.9      100     0.000     0.000     0.000     0.000       97        0        0        0        0        0        0     8.580      100     25.0    2.145     0.45       10        2     2010  Parnassus_GroundnutGDDCRO_Clay_S2_riegoIRR.PRM
  Tot(21)       31       10     2010    158.5    486.7   1747.6   390.77    319.4    140.8     17.7     10.2      0.0    233.2       90    256.2    259.6      100     0.000     0.000     0.000     0.000      104        0        0        0        0        0        0     9.241      100     25.0    2.310     0.48       18        2     2011  Parnassus_GroundnutGDDCRO_Clay_S2_riegoIRR.PRM
  Tot(22)       31       10     2011     66.4    501.5   1721.4   392.75    400.2     66.0      0.4      2.9      0.0    236.4       88    264.5    261.3      100     0.000     0.000     0.000     0.000       98        0        0        0        0        0        0     8.737      100     25.0    2.184     0.44       11        2     2012  Parnassus_GroundnutGDDCRO_Clay_S2_riegoIRR.PRM
  Tot(23)       31       10     2012     90.4    489.3   1724.0   395.19    381.0     84.0      6.4      3.8      0.0    234.8       92    263.2    262.6      100     0.000     0.000     0.000     0.000       98        0        0        0        0        0        0     8.719      100     25.0    2.180     0.44       11        2     2013  Parnassus_GroundnutGDDCRO_Clay_S2_riegoIRR.PRM
  Tot(24)       31       10     2013    122.3    477.4   1719.0   397.58    336.4    118.1      4.2      5.5      0.0    231.5       92    254.6    254.7      100     0.000     0.000     0.000     0.000       96        0        0        0        0        0        0     8.623      100     25.0    2.156     0.44        9        2     2014  Parnassus_GroundnutGDDCRO_Clay_S2_riegoIRR.PRM
  Tot(25)       31       10     2014    160.9    467.7   1719.9   399.74    288.5    150.3     10.6      0.0      0.0    229.7       92    246.9    247.6      100     0.000     0.000     0.000     0.000       97        0        0        0        0        0        0     8.771      100     25.0    2.193     0.46       10        2     2015  Parnassus_GroundnutGDDCRO_Clay_S2_riegoIRR.PRM
  Tot(26)       31       10     2015    193.2    454.3   1719.8   402.52    253.9    187.0      6.2      7.0      0.0    229.4       96    242.1    241.9      100     0.000     0.000     0.000     0.000       96        0        0        0        0        0        0     8.728      100     25.0    2.182     0.46        9        2     2016  Parnassus_GroundnutGDDCRO_Clay_S2_riegoIRR.PRM
  Tot(27)       31       10     2016    170.3    467.5   1715.0   405.21    295.5    160.7      9.6     22.2      0.0    217.2       90    253.6    253.0      100     0.000     0.000     0.000     0.000       97        0        0        0        0        0        0     8.852      100     25.0    2.213     0.47       10        2     2017  Parnassus_GroundnutGDDCRO_Clay_S2_riegoIRR.PRM
  Tot(28)       31       10     2017    435.1    411.7   1735.3   407.21     89.2    364.4     70.7     79.4      0.0    198.4       93    213.0    213.6       96     0.000     0.000     0.000     0.000       99        0        0        0        0        0        3     8.737       96     25.0    2.184     0.53       12        2     2018  Parnassus_GroundnutGDDCRO_Clay_S2_riegoIRR.PRM
  Tot(29)       31       10     2018     75.0    473.1   1716.0   409.21    362.2     72.4      2.6      1.1      0.0    222.8       88    248.6    249.0      100     0.000     0.000     0.000     0.000       97        0        0        0        0        0        0     8.921      100     25.0    2.230     0.47       10        2     2019  Parnassus_GroundnutGDDCRO_Clay_S2_riegoIRR.PRM
