AquaCrop 6.0 (March 2017) - Output created on (date) : 3/5/2021   at (time) : 4:01:37 PM

    RunNr     Day1   Month1    Year1     Rain      ETo       GD     CO2      Irri   Infilt   Runoff    Drain   Upflow        E     E/Ex       Tr      TrW   Tr/Trx    SaltIn   SaltOut    SaltUp  SaltProf     Cycle   SaltStr  FertStr  WeedStr  TempStr   ExpStr   StoStr  BioMass  Brelative   HI     Yield     WPet     DayN   MonthN    YearN
                                           mm       mm    °C.day    ppm        mm       mm       mm       mm       mm       mm        %       mm       mm        %    ton/ha    ton/ha    ton/ha    ton/ha      days       %        %        %        %        %        %    ton/ha        %       %    ton/ha    kg/m3
   Tot(1)        1       10     1990    266.7    480.7   1295.0   355.00    211.3    251.7     15.0      3.3      0.0    128.3       87    367.9    367.9      100     0.000     0.000     0.000     0.000      101        0        0        0        0        0        0    16.361      100     53.7    8.783     1.78       15        1     1991  Parnassus_SweetPotatoGDDCRO_ClayLoam_S2_riegoIRR.PRM
   Tot(2)        1       10     1991    133.4    514.7   1296.8   356.03    369.3    123.0     10.4      0.0      0.0    137.2       86    391.4    391.4      100     0.000     0.000     0.000     0.000      102        0        0        0        0        0        0    16.341      100     53.8    8.793     1.67       17        1     1992  Parnassus_SweetPotatoGDDCRO_ClayLoam_S2_riegoIRR.PRM
   Tot(3)        1       10     1992     75.0    522.9   1294.1   356.27    428.2     74.9      0.1      0.0      0.0    127.1       82    409.9    404.8      100     0.000     0.000     0.000     0.000       99        0        0        0        0        0        0    15.917      100     53.7    8.545     1.59       12        1     1993  Parnassus_SweetPotatoGDDCRO_ClayLoam_S2_riegoIRR.PRM
   Tot(4)        1       10     1993    191.1    507.3   1295.5   357.47    327.0    167.1     24.0      0.0      0.0    136.2       86    387.0    392.1      100     0.000     0.000     0.000     0.000      100        0        0        0        0        0        0    16.114      100     53.7    8.659     1.66       15        1     1994  Parnassus_SweetPotatoGDDCRO_ClayLoam_S2_riegoIRR.PRM
   Tot(5)        1       10     1994    189.2    512.7   1299.0   359.82    333.3    167.9     21.3      6.7      0.0    134.9       86    394.3    394.3      100     0.000     0.000     0.000     0.000      101        0        0        0        0        0        0    16.412      100     53.7    8.819     1.67       15        1     1995  Parnassus_SweetPotatoGDDCRO_ClayLoam_S2_riegoIRR.PRM
   Tot(6)        1       10     1995    224.4    492.5   1294.2   361.72    326.8    200.9     23.5     40.2      0.0    134.6       94    387.9    384.3      100     0.000     0.000     0.000     0.000       99        0        0        0        0        0        0    16.082      100     53.8    8.656     1.66       13        1     1996  Parnassus_SweetPotatoGDDCRO_ClayLoam_S2_riegoIRR.PRM
   Tot(7)        1       10     1996    252.2    518.2   1297.0   363.17    311.7    222.8     29.4     29.5      0.0    131.9       91    409.3    412.9      100     0.000     0.000     0.000     0.000      105        0        0        0        0        0        0    17.308      100     53.9    9.324     1.73       19        1     1997  Parnassus_SweetPotatoGDDCRO_ClayLoam_S2_riegoIRR.PRM
   Tot(8)        1       10     1997    222.5    492.9   1295.1   365.22    306.5    199.1     23.4     22.7      0.0    139.2       93    379.3    379.3      100     0.000     0.000     0.000     0.000       98        0        0        0        0        0        0    15.979      100     53.8    8.600     1.67       13        1     1998  Parnassus_SweetPotatoGDDCRO_ClayLoam_S2_riegoIRR.PRM
   Tot(9)        1       10     1998    421.8    472.2   1296.4   367.54    189.8    300.0    121.8     42.2      0.0    117.8       85    366.9    366.9      100     0.000     0.000     0.000     0.000      101        0        0        0        0        0       -0    16.792      100     53.7    9.023     1.87       15        1     1999  Parnassus_SweetPotatoGDDCRO_ClayLoam_S2_riegoIRR.PRM
  Tot(10)        1       10     1999    392.9    510.7   1294.6   368.97    250.9    326.7     66.2     71.6      0.0    127.4       95    410.9    410.9      100     0.000     0.000     0.000     0.000      111        0        0        0        0        0        0    18.651      100     53.7   10.015     1.87       25        1     2000  Parnassus_SweetPotatoGDDCRO_ClayLoam_S2_riegoIRR.PRM
  Tot(11)        1       10     2000    370.5    492.9   1294.3   370.35    237.0    293.6     76.9     51.9      0.0    135.2       88    378.3    373.9      100     0.000     0.000     0.000     0.000      105        0        0        0        0        0        0    17.596      100     53.8    9.458     1.84       19        1     2001  Parnassus_SweetPotatoGDDCRO_ClayLoam_S2_riegoIRR.PRM
  Tot(12)        1       10     2001    455.1    474.8   1301.5   372.21    156.2    367.9     87.2     63.3      0.0    134.1       92    363.2    367.6      100     0.000     0.000     0.000     0.000      103        0        0        0        0        0        0    17.447      100     53.8    9.394     1.90       17        1     2002  Parnassus_SweetPotatoGDDCRO_ClayLoam_S2_riegoIRR.PRM
  Tot(13)        1       10     2002    205.1    482.7   1295.7   374.54    295.8    181.6     23.5     20.6      0.0    122.8       84    371.6    371.6      100     0.000     0.000     0.000     0.000       98        0        0        0        0        0        0    16.374      100     53.8    8.812     1.79       13        1     2003  Parnassus_SweetPotatoGDDCRO_ClayLoam_S2_riegoIRR.PRM
  Tot(14)        1       10     2003    291.2    498.9   1301.8   376.66    231.6    256.7     34.5      1.8      0.0    132.9       92    390.2    390.2      100     0.000     0.000     0.000     0.000       99        0        0        0        0        0        0    16.805      100     53.8    9.038     1.74       13        1     2004  Parnassus_SweetPotatoGDDCRO_ClayLoam_S2_riegoIRR.PRM
  Tot(15)        1       10     2004    141.3    544.0   1304.9   378.66    390.8    137.0      4.3      2.4      0.0    132.7       86    428.3    428.3      100     0.000     0.000     0.000     0.000      100        0        0        0        0        0        0    17.202      100     53.8    9.259     1.66       14        1     2005  Parnassus_SweetPotatoGDDCRO_ClayLoam_S2_riegoIRR.PRM
  Tot(16)        1       10     2005    709.8    451.0   1299.1   380.85    160.2    487.8    222.0    204.4      0.0    117.7       99    363.0    363.0      100     0.000     0.000     0.000     0.000      103        0        0        0        0        0        0    17.565      100     53.8    9.451     1.97       18        1     2006  Parnassus_SweetPotatoGDDCRO_ClayLoam_S2_riegoIRR.PRM
  Tot(17)        1       10     2006    208.1    489.5   1304.2   382.85    284.9    184.4     23.7      1.0      0.0    132.5       88    372.7    372.7      100     0.000     0.000     0.000     0.000       95        0        0        0        0        0        0    16.419      100     53.8    8.834     1.76        9        1     2007  Parnassus_SweetPotatoGDDCRO_ClayLoam_S2_riegoIRR.PRM
  Tot(18)        1       10     2007    615.8    469.0   1298.7   384.70    209.5    429.4    186.4    179.0      0.0    120.9       97    375.6    375.6      100     0.000     0.000     0.000     0.000      104        0        0        0        0        0        0    17.885      100     53.8    9.630     1.95       19        1     2008  Parnassus_SweetPotatoGDDCRO_ClayLoam_S2_riegoIRR.PRM
  Tot(19)        1       10     2008    265.9    487.5   1302.9   386.51    273.9    226.8     39.1     26.8      0.0    131.5       93    378.4    378.4      100     0.000     0.000     0.000     0.000      103        0        0        0        0        0        0    17.909      100     53.8    9.642     1.90       18        1     2009  Parnassus_SweetPotatoGDDCRO_ClayLoam_S2_riegoIRR.PRM
  Tot(20)        1       10     2009    249.9    482.5   1301.4   388.66    277.8    198.4     51.5      7.3      0.0    133.4       92    371.7    371.7      100     0.000     0.000     0.000     0.000       98        0        0        0        0        0        0    17.091      100     53.8    9.198     1.83       12        1     2010  Parnassus_SweetPotatoGDDCRO_ClayLoam_S2_riegoIRR.PRM
  Tot(21)        1       10     2010    297.1    496.2   1299.4   390.77    249.5    254.2     42.9     22.6      0.0    126.7       93    391.6    391.6      100     0.000     0.000     0.000     0.000      109        0        0        0        0        0        0    19.277      100     53.8   10.370     2.01       24        1     2011  Parnassus_SweetPotatoGDDCRO_ClayLoam_S2_riegoIRR.PRM
  Tot(22)        1       10     2011    208.1    498.0   1296.9   392.75    311.1    192.2     15.9     13.2      0.0    133.3       96    393.2    393.2      100     0.000     0.000     0.000     0.000      100        0        0        0        0        0        0    17.484      100     53.7    9.388     1.79       14        1     2012  Parnassus_SweetPotatoGDDCRO_ClayLoam_S2_riegoIRR.PRM
  Tot(23)        1       10     2012    277.9    494.6   1299.4   395.19    320.3    193.1     84.8     37.6      0.0    131.2       90    381.1    381.1      100     0.000     0.000     0.000     0.000      100        0        0        0        0        0        0    17.590      100     53.8    9.467     1.86       15        1     2013  Parnassus_SweetPotatoGDDCRO_ClayLoam_S2_riegoIRR.PRM
  Tot(24)        1       10     2013    139.2    481.4   1306.2   397.58    328.1    133.3      5.9      1.2      0.0    122.3       88    373.9    373.9      100     0.000     0.000     0.000     0.000       97        0        0        0        0        0        0    17.132      100     53.6    9.188     1.86       11        1     2014  Parnassus_SweetPotatoGDDCRO_ClayLoam_S2_riegoIRR.PRM
  Tot(25)        1       10     2014    197.7    482.6   1298.0   399.74    268.2    184.8     12.9      0.0      0.0    122.8       82    365.7    370.8      100     0.000     0.000     0.000     0.000       98        0        0        0        0        0        0    17.402      100     53.8    9.366     1.93       12        1     2015  Parnassus_SweetPotatoGDDCRO_ClayLoam_S2_riegoIRR.PRM
  Tot(26)        1       10     2015    272.3    460.6   1300.5   402.52    189.9    258.8     13.5      1.4      0.0    131.0       94    352.7    352.7      100     0.000     0.000     0.000     0.000       96        0        0        0        0        0        0    17.233      100     53.8    9.267     1.92       10        1     2016  Parnassus_SweetPotatoGDDCRO_ClayLoam_S2_riegoIRR.PRM
  Tot(27)        1       10     2016    308.3    456.4   1299.9   405.21    170.6    280.6     27.7      8.2      0.0    126.0       96    352.9    352.9      100     0.000     0.000     0.000     0.000       98        0        0        0        0        0        0    17.635      100     53.8    9.491     1.99       12        1     2017  Parnassus_SweetPotatoGDDCRO_ClayLoam_S2_riegoIRR.PRM
  Tot(28)        1       10     2017    602.5    419.9   1294.6   407.21     55.5    495.4    107.1     90.3      0.0    124.0       96    318.9    318.9      100     0.000     0.000     0.000     0.000      100        0        0        0        0        0        0    18.143      100     53.7    9.749     2.21       14        1     2018  Parnassus_SweetPotatoGDDCRO_ClayLoam_S2_riegoIRR.PRM
  Tot(29)        1       10     2018    172.4    479.4   1295.5   409.21    342.7    149.5     22.9     28.1      0.0    131.0       93    369.3    369.3      100     0.000     0.000     0.000     0.000       98        0        0        0        0        0        0    17.544      100     53.8    9.442     1.90       13        1     2019  Parnassus_SweetPotatoGDDCRO_ClayLoam_S2_riegoIRR.PRM
