AquaCrop 6.0 (March 2017) - Output created on (date) : 3/5/2021   at (time) : 3:51:20 PM

    RunNr     Day1   Month1    Year1     Rain      ETo       GD     CO2      Irri   Infilt   Runoff    Drain   Upflow        E     E/Ex       Tr      TrW   Tr/Trx    SaltIn   SaltOut    SaltUp  SaltProf     Cycle   SaltStr  FertStr  WeedStr  TempStr   ExpStr   StoStr  BioMass  Brelative   HI     Yield     WPet     DayN   MonthN    YearN
                                           mm       mm    °C.day    ppm        mm       mm       mm       mm       mm       mm        %       mm       mm        %    ton/ha    ton/ha    ton/ha    ton/ha      days       %        %        %        %        %        %    ton/ha        %       %    ton/ha    kg/m3
   Tot(1)       31        5     1990    120.0    588.8   1685.4   354.39      0.0    119.7      0.3      0.0      0.0    139.3       43    215.9    215.5       73     0.000     0.000     0.000     0.000       91        0        0        0        0       39       20     5.012       69     26.5    1.328     0.37        4        9     1990  Parnassus_GroundnutGDDCRO_ClayLoam_S1_rainfed.PRM
   Tot(2)       31        5     1991     66.2    573.7   1678.6   355.61      0.0     66.2      0.0      0.0      0.0     95.3       30    202.6    202.5       71     0.000     0.000     0.000     0.000       91        0        0        0        0       40       21     4.904       67     26.5    1.300     0.44        4        9     1991  Parnassus_GroundnutGDDCRO_ClayLoam_S1_rainfed.PRM
   Tot(3)       31        5     1992     99.0    586.6   1689.8   356.45      0.0     99.0      0.0      0.0      0.0    118.0       36    212.6    212.6       72     0.000     0.000     0.000     0.000       91        0        0        0        0       40       20     5.032       69     26.5    1.334     0.40        4        9     1992  Parnassus_GroundnutGDDCRO_ClayLoam_S1_rainfed.PRM
   Tot(4)       31        5     1993    138.5    570.5   1694.1   356.10      0.0    134.1      4.4      8.9      0.0    138.0       45    220.9    220.6       74     0.000     0.000     0.000     0.000       92        0        0        0        0       37       18     5.307       72     26.5    1.406     0.39        5        9     1993  Parnassus_GroundnutGDDCRO_ClayLoam_S1_rainfed.PRM
   Tot(5)       31        5     1994     93.9    626.8   1675.2   358.83      0.0     93.9      0.0      0.0      0.0    114.9       32    213.8    213.9       70     0.000     0.000     0.000     0.000       90        0        0        0        0       44       22     4.751       65     26.5    1.259     0.38        3        9     1994  Parnassus_GroundnutGDDCRO_ClayLoam_S1_rainfed.PRM
   Tot(6)       31        5     1995    201.4    563.4   1662.7   360.82      0.0    201.2      0.2      0.0      0.0    159.5       51    265.4    264.3       92     0.000     0.000     0.000     0.000       89        0        0        0        0       12        5     6.627       92     26.5    1.756     0.41        2        9     1995  Parnassus_GroundnutGDDCRO_ClayLoam_S1_rainfed.PRM
   Tot(7)       31        5     1996    135.8    582.1   1668.9   362.61      0.0    135.8      0.0      0.0      0.0    141.5       43    228.0    228.9       79     0.000     0.000     0.000     0.000       90        0        0        0        0       36       15     5.694       78     26.5    1.509     0.41        3        9     1996  Parnassus_GroundnutGDDCRO_ClayLoam_S1_rainfed.PRM
   Tot(8)       31        5     1997    222.2    542.7   1697.1   363.73      0.0    191.8     30.4     29.6      0.0    155.1       53    235.9    235.7       82     0.000     0.000     0.000     0.000       92        0        0        0        0        6       13     6.072       81     26.5    1.609     0.41        5        9     1997  Parnassus_GroundnutGDDCRO_ClayLoam_S1_rainfed.PRM
   Tot(9)       31        5     1998    213.9    558.7   1648.5   366.70      0.0    209.5      4.4      0.0      0.0    150.2       48    268.0    263.8       95     0.000     0.000     0.000     0.000       88        0        0        0        0        0        4     6.781       95     26.5    1.797     0.43       31        8     1998  Parnassus_GroundnutGDDCRO_ClayLoam_S1_rainfed.PRM
  Tot(10)       31        5     1999    229.9    558.6   1682.6   368.38      0.0    227.5      2.4      1.5      0.0    187.1       61    262.9    266.6       91     0.000     0.000     0.000     0.000       91        0        0        0        0        2        6     6.827       91     26.5    1.809     0.40        4        9     1999  Parnassus_GroundnutGDDCRO_ClayLoam_S1_rainfed.PRM
  Tot(11)       31        5     2000    263.7    573.0   1693.2   369.55      0.0    247.8     15.9     10.4      0.0    148.4       47    281.1    279.0       94     0.000     0.000     0.000     0.000       92        0        0        0        0        3        4     7.234       94     26.5    1.917     0.45        5        9     2000  Parnassus_GroundnutGDDCRO_ClayLoam_S1_rainfed.PRM
  Tot(12)       31        5     2001    101.9    587.7   1670.7   371.14      0.0    101.9      0.0      0.0      0.0    108.0       32    225.8    227.6       77     0.000     0.000     0.000     0.000       90        0        0        0        0       37       15     5.679       76     26.5    1.505     0.45        3        9     2001  Parnassus_GroundnutGDDCRO_ClayLoam_S1_rainfed.PRM
  Tot(13)       31        5     2002    200.9    544.3   1687.3   373.28      0.0    178.7     22.2     35.0      0.0    153.9       52    218.6    219.5       77     0.000     0.000     0.000     0.000       92        0        0        0        0       36       16     5.744       75     26.5    1.522     0.41        5        9     2002  Parnassus_GroundnutGDDCRO_ClayLoam_S1_rainfed.PRM
  Tot(14)       31        5     2003    246.4    568.2   1686.7   375.80      0.0    242.8      3.6      3.3      0.0    188.6       60    271.7    270.9       92     0.000     0.000     0.000     0.000       91        0        0        0        0        4        5     7.104       92     26.5    1.882     0.41        4        9     2003  Parnassus_GroundnutGDDCRO_ClayLoam_S1_rainfed.PRM
  Tot(15)       31        5     2004    150.6    590.3   1676.2   377.52      0.0    148.5      2.1      0.0      0.0    121.4       37    256.6    256.8       85     0.000     0.000     0.000     0.000       90        0        0        0        0       19       10     6.426       84     26.5    1.703     0.45        3        9     2004  Parnassus_GroundnutGDDCRO_ClayLoam_S1_rainfed.PRM
  Tot(16)       31        5     2005    637.8    496.3   1700.3   379.80      0.0    431.7    206.1    122.3      0.0    223.7       84    263.7    261.5      100     0.000     0.000     0.000     0.000       92        0        0        0        0        0        0     7.774      100     26.0    2.022     0.41        4        9     2005  Parnassus_GroundnutGDDCRO_ClayLoam_S1_rainfed.PRM
  Tot(17)       31        5     2006    297.1    541.8   1676.0   381.90      0.0    267.0     30.1     43.6      0.0    179.0       61    264.5    266.3       92     0.000     0.000     0.000     0.000       90        0        0        0        0        4        5     7.073       92     26.5    1.874     0.42        3        9     2006  Parnassus_GroundnutGDDCRO_ClayLoam_S1_rainfed.PRM
  Tot(18)       31        5     2007    242.4    550.8   1675.7   383.79      0.0    230.2     12.2      0.0      0.0    143.0       46    280.6    278.5      100     0.000     0.000     0.000     0.000       90        0        0        0        0       17        0     7.682       99     26.5    2.036     0.48        3        9     2007  Parnassus_GroundnutGDDCRO_ClayLoam_S1_rainfed.PRM
  Tot(19)       31        5     2008    496.8    542.8   1685.6   385.60      0.0    365.1    131.7      0.0      0.0    151.4       50    279.5    279.8      100     0.000     0.000     0.000     0.000       91        0        0        0        0        0        0     7.831      100     25.5    1.995     0.46        4        9     2008  Parnassus_GroundnutGDDCRO_ClayLoam_S1_rainfed.PRM
  Tot(20)       31        5     2009    210.1    549.6   1684.5   387.43      0.0    206.0      4.1      0.0      0.0    166.3       57    264.0    266.2       90     0.000     0.000     0.000     0.000       91        0        0        0        0        5        7     7.005       89     26.5    1.856     0.43        4        9     2009  Parnassus_GroundnutGDDCRO_ClayLoam_S1_rainfed.PRM
  Tot(21)       31        5     2010    393.5    496.7   1684.5   389.90      0.0    372.2     21.3     17.2      0.0    198.3       72    255.7    253.2      100     0.000     0.000     0.000     0.000       91        0        0        0        0        0        0     7.853      100     25.0    1.963     0.43        3        9     2010  Parnassus_GroundnutGDDCRO_ClayLoam_S1_rainfed.PRM
  Tot(22)       31        5     2011    528.1    509.7   1702.4   391.65      0.0    436.9     91.2     87.9      0.0    191.9       71    272.2    272.3      100     0.000     0.000     0.000     0.000       92        0        0        0        0        0        0     8.032      100     25.1    2.012     0.43        5        9     2011  Parnassus_GroundnutGDDCRO_ClayLoam_S1_rainfed.PRM
  Tot(23)       31        5     2012    305.7    549.5   1672.1   393.85      0.0    288.7     17.0      2.3      0.0    172.5       56    279.3    278.6      100     0.000     0.000     0.000     0.000       90        0        0        0        0        2       -0     7.873      100     26.5    2.084     0.46        3        9     2012  Parnassus_GroundnutGDDCRO_ClayLoam_S1_rainfed.PRM
  Tot(24)       31        5     2013    227.6    531.5   1684.4   396.52      0.0    226.3      1.3      0.5      0.0    153.7       53    274.9    276.1       99     0.000     0.000     0.000     0.000       91        0        0        0        0        1        0     7.977       99     26.5    2.114     0.49        4        9     2013  Parnassus_GroundnutGDDCRO_ClayLoam_S1_rainfed.PRM
  Tot(25)       31        5     2014    183.8    549.0   1671.5   398.65      0.0    174.8      9.0      0.0      0.0    124.7       41    245.9    245.3       87     0.000     0.000     0.000     0.000       90        0        0        0        0       35        8     6.842       86     26.5    1.813     0.49        3        9     2014  Parnassus_GroundnutGDDCRO_ClayLoam_S1_rainfed.PRM
  Tot(26)       31        5     2015    167.7    551.3   1672.0   400.83      0.0    156.2     11.5     13.2      0.0    157.1       53    219.1    222.3       76     0.000     0.000     0.000     0.000       90        0        0        0        0       14       16     6.012       76     26.5    1.593     0.42        3        9     2015  Parnassus_GroundnutGDDCRO_ClayLoam_S1_rainfed.PRM
  Tot(27)       31        5     2016    282.2    530.2   1667.7   404.21      0.0    266.1     16.1     17.4      0.0    172.4       59    270.0    266.2       99     0.000     0.000     0.000     0.000       89        0        0        0        0        4        1     7.833       99     26.5    2.076     0.47        2        9     2016  Parnassus_GroundnutGDDCRO_ClayLoam_S1_rainfed.PRM
  Tot(28)       31        5     2017    271.4    520.2   1676.3   406.21      0.0    240.8     30.6     45.1      0.0    169.3       60    249.8    252.9       92     0.000     0.000     0.000     0.000       90        0        0        0        0        3        5     7.423       92     26.5    1.967     0.47        3        9     2017  Parnassus_GroundnutGDDCRO_ClayLoam_S1_rainfed.PRM
  Tot(29)       31        5     2018    131.9    546.7   1682.8   408.21      0.0    131.7      0.2      0.0      0.0    149.4       50    211.5    212.2       75     0.000     0.000     0.000     0.000       91        0        0        0        0       36       17     5.980       73     26.5    1.585     0.44        4        9     2018  Parnassus_GroundnutGDDCRO_ClayLoam_S1_rainfed.PRM
