AquaCrop 6.0 (March 2017) - Output created on (date) : 3/5/2021   at (time) : 4:03:53 PM

    RunNr     Day1   Month1    Year1     Rain      ETo       GD     CO2      Irri   Infilt   Runoff    Drain   Upflow        E     E/Ex       Tr      TrW   Tr/Trx    SaltIn   SaltOut    SaltUp  SaltProf     Cycle   SaltStr  FertStr  WeedStr  TempStr   ExpStr   StoStr  BioMass  Brelative   HI     Yield     WPet     DayN   MonthN    YearN
                                           mm       mm    °C.day    ppm        mm       mm       mm       mm       mm       mm        %       mm       mm        %    ton/ha    ton/ha    ton/ha    ton/ha      days       %        %        %        %        %        %    ton/ha        %       %    ton/ha    kg/m3
   Tot(1)        1        5     1990    130.3    611.2   1303.9   354.39      0.0    130.1      0.2      0.0      0.0     95.5       33    137.0    137.0       38     0.000     0.000     0.000     0.000       94        0        0        0        0       64       46     4.726       32     23.3    1.103     0.48        9        8     1990  Parnassus_SweetPotatoGDDCRO_Sand_S1_rainfed.PRM
   Tot(2)        1        5     1991    123.7    589.6   1298.3   355.61      0.0    122.6      1.1     17.8      0.0    101.5       38     98.7     98.7       27     0.000     0.000     0.000     0.000       95        0        0        0        0       66       58     3.369       23     13.8    0.466     0.23       10        8     1991  Parnassus_SweetPotatoGDDCRO_Sand_S1_rainfed.PRM
   Tot(3)        1        5     1992    139.4    604.8   1302.7   356.45      0.0    139.4      0.0      0.0      0.0     99.6       43    138.4    138.4       34     0.000     0.000     0.000     0.000       95        0        0        0        0       58       50     4.883       33     15.6    0.762     0.32       10        8     1992  Parnassus_SweetPotatoGDDCRO_Sand_S1_rainfed.PRM
   Tot(4)        1        5     1993    281.3    572.3   1294.6   356.10      0.0    275.7      5.6     50.2      0.0    149.7       80    179.0    179.0       43     0.000     0.000     0.000     0.000       97        0        0        0        0       54       43     6.466       43     22.5    1.455     0.44       12        8     1993  Parnassus_SweetPotatoGDDCRO_Sand_S1_rainfed.PRM
   Tot(5)        1        5     1994    116.2    653.1   1306.7   358.83      0.0    116.2      0.0      0.0      0.0    116.6       34     93.5     93.5       26     0.000     0.000     0.000     0.000       93        0        0        0        0       67       59     2.832       19     13.0    0.368     0.18        8        8     1994  Parnassus_SweetPotatoGDDCRO_Sand_S1_rainfed.PRM
   Tot(6)        1        5     1995    176.3    597.5   1303.6   360.82      0.0    176.2      0.1      6.3      0.0    136.1       45    129.7    129.7       38     0.000     0.000     0.000     0.000       92        0        0        0        0       65       47     4.380       30     20.8    0.911     0.35        7        8     1995  Parnassus_SweetPotatoGDDCRO_Sand_S1_rainfed.PRM
   Tot(7)        1        5     1996    149.1    613.9   1300.0   362.61      0.0    149.1      0.0      0.0      0.0    135.9       42    113.6    113.6       33     0.000     0.000     0.000     0.000       94        0        0        0        0       66       52     3.694       25     19.4    0.715     0.29        9        8     1996  Parnassus_SweetPotatoGDDCRO_Sand_S1_rainfed.PRM
   Tot(8)        1        5     1997    243.7    605.0   1303.0   363.73      0.0    232.0     11.7     57.2      0.0     64.5       27    216.3    216.3       53     0.000     0.000     0.000     0.000       95        0        0        0        0       49       36     7.798       50     28.1    2.193     0.79       10        8     1997  Parnassus_SweetPotatoGDDCRO_Sand_S1_rainfed.PRM
   Tot(9)        1        5     1998    172.5    596.3   1298.0   366.70      0.0    172.2      0.3      0.0      0.0     90.0       33    185.8    185.8       50     0.000     0.000     0.000     0.000       89        0        0        0        0       58       38     6.140       43     32.4    1.987     0.72        4        8     1998  Parnassus_SweetPotatoGDDCRO_Sand_S1_rainfed.PRM
  Tot(10)        1        5     1999    251.3    595.5   1297.7   368.38      0.0    250.8      0.5      4.9      0.0    101.5       50    253.6    253.6       58     0.000     0.000     0.000     0.000       95        0        0        0        0       36       32     8.976       58     30.4    2.732     0.77       10        8     1999  Parnassus_SweetPotatoGDDCRO_Sand_S1_rainfed.PRM
  Tot(11)        1        5     2000    189.4    614.7   1296.4   369.55      0.0    189.3      0.1      0.0      0.0     88.8       37    198.2    198.2       47     0.000     0.000     0.000     0.000       95        0        0        0        0       57       40     6.909       44     23.4    1.615     0.56       10        8     2000  Parnassus_SweetPotatoGDDCRO_Sand_S1_rainfed.PRM
  Tot(12)        1        5     2001    205.3    606.9   1296.5   371.14      0.0    200.2      5.1     38.1      0.0    156.0       50     97.0     97.0       30     0.000     0.000     0.000     0.000       94        0        0        0        0       67       57     3.251       21     15.6    0.506     0.20        9        8     2001  Parnassus_SweetPotatoGDDCRO_Sand_S1_rainfed.PRM
  Tot(13)        1        5     2002    407.0    574.2   1303.4   373.28      0.0    372.7     34.3    206.3      0.0     80.2       40    189.8    189.8       47     0.000     0.000     0.000     0.000       97        0        0        0        0       30       40     7.617       48     28.7    2.184     0.81       12        8     2002  Parnassus_SweetPotatoGDDCRO_Sand_S1_rainfed.PRM
  Tot(14)        1        5     2003    278.2    603.3   1294.3   375.80      0.0    269.1      9.1     33.5      0.0     82.8       39    257.8    257.2       59     0.000     0.000     0.000     0.000       95        0        0        0        0       50       31     9.091       58     34.1    3.104     0.91        8        8     2003  Parnassus_SweetPotatoGDDCRO_Sand_S1_rainfed.PRM
  Tot(15)        1        5     2004    135.0    616.4   1301.3   377.52      0.0    135.0      0.0      0.0      0.0    127.3       38    102.8    103.4       32     0.000     0.000     0.000     0.000       93        0        0        0        0       67       55     3.486       23     18.1    0.630     0.27        8        8     2004  Parnassus_SweetPotatoGDDCRO_Sand_S1_rainfed.PRM
  Tot(16)        1        5     2005    756.7    526.9   1294.9   379.80      0.0    651.2    105.5    252.6      0.0    124.5       71    371.7    371.7       95     0.000     0.000     0.000     0.000       94        0        0        0        0        9        4    14.981       96     52.2    7.821     1.58        8        8     2005  Parnassus_SweetPotatoGDDCRO_Sand_S1_rainfed.PRM
  Tot(17)        1        5     2006    294.0    588.5   1304.5   381.90      0.0    286.4      7.6     33.8      0.0     72.0       35    286.8    286.8       68     0.000     0.000     0.000     0.000       93        0        0        0        0        7       24    10.712       68     36.1    3.865     1.09        8        8     2006  Parnassus_SweetPotatoGDDCRO_Sand_S1_rainfed.PRM
  Tot(18)        1        5     2007    278.6    569.3   1297.8   383.79      0.0    273.7      4.9     49.0      0.0    119.2       68    200.0    200.0       47     0.000     0.000     0.000     0.000       92        0        0        0        0       32       40     7.510       48     23.5    1.768     0.56        7        8     2007  Parnassus_SweetPotatoGDDCRO_Sand_S1_rainfed.PRM
  Tot(19)        1        5     2008    237.2    590.9   1306.3   385.60      0.0    223.5     13.7      0.0      0.0     72.0       34    248.8    248.8       60     0.000     0.000     0.000     0.000       94        0        0        0        0       44       30     9.371       58     38.1    3.574     1.12        9        8     2008  Parnassus_SweetPotatoGDDCRO_Sand_S1_rainfed.PRM
  Tot(20)        1        5     2009    257.1    577.8   1304.1   387.43      0.0    255.6      1.5     27.0      0.0    112.8       59    222.2    222.2       53     0.000     0.000     0.000     0.000       96        0        0        0        0       28       35     8.792       54     28.3    2.485     0.74       11        8     2009  Parnassus_SweetPotatoGDDCRO_Sand_S1_rainfed.PRM
  Tot(21)        1        5     2010    486.8    525.2   1303.3   389.90      0.0    451.9     34.9     64.6      0.0     86.1       49    353.7    353.7       92     0.000     0.000     0.000     0.000       93        0        0        0        0       23        6    14.762       93     50.8    7.497     1.71        7        8     2010  Parnassus_SweetPotatoGDDCRO_Sand_S1_rainfed.PRM
  Tot(22)        1        5     2011    465.1    553.8   1303.1   391.65      0.0    432.4     32.7    117.6      0.0     69.9       35    341.5    341.5       87     0.000     0.000     0.000     0.000       95        0        0        0        0        5        9    14.132       86     53.6    7.574     1.84       10        8     2011  Parnassus_SweetPotatoGDDCRO_Sand_S1_rainfed.PRM
  Tot(23)        1        5     2012    260.8    582.0   1304.4   393.85      0.0    253.2      7.6      0.0      0.0     97.5       43    222.2    222.2       56     0.000     0.000     0.000     0.000       93        0        0        0        0       50       33     8.421       53     33.7    2.834     0.89        8        8     2012  Parnassus_SweetPotatoGDDCRO_Sand_S1_rainfed.PRM
  Tot(24)        1        5     2013    206.0    570.9   1303.4   396.52      0.0    206.0      0.0      0.0      0.0     94.9       48    219.5    219.5       53     0.000     0.000     0.000     0.000       94        0        0        0        0       39       35     8.752       54     29.7    2.600     0.83        9        8     2013  Parnassus_SweetPotatoGDDCRO_Sand_S1_rainfed.PRM
  Tot(25)        1        5     2014    166.3    587.3   1307.3   398.65      0.0    164.4      1.9     12.0      0.0    125.7       48    124.6    124.6       34     0.000     0.000     0.000     0.000       94        0        0        0        0       64       52     4.789       29     18.9    0.905     0.36        9        8     2014  Parnassus_SweetPotatoGDDCRO_Sand_S1_rainfed.PRM
  Tot(26)        1        5     2015    170.5    579.1   1296.0   400.83      0.0    170.4      0.1      0.0      0.0     82.4       39    192.3    192.3       48     0.000     0.000     0.000     0.000       94        0        0        0        0       53       39     7.615       47     26.4    2.012     0.73        8        8     2015  Parnassus_SweetPotatoGDDCRO_Sand_S1_rainfed.PRM
  Tot(27)        1        5     2016    289.2    562.2   1302.7   404.21      0.0    286.6      2.6      8.7      0.0     96.4       53    268.1    268.1       65     0.000     0.000     0.000     0.000       92        0        0        0        0       17       26    10.664       66     35.0    3.729     1.03        6        8     2016  Parnassus_SweetPotatoGDDCRO_Sand_S1_rainfed.PRM
  Tot(28)        1        5     2017    400.3    537.4   1306.8   406.21      0.0    368.8     31.5    118.7      0.0     92.7       51    261.2    261.2       68     0.000     0.000     0.000     0.000       94        0        0        0        0       24       24    10.913       66     41.5    4.526     1.29        9        8     2017  Parnassus_SweetPotatoGDDCRO_Sand_S1_rainfed.PRM
  Tot(29)        1        5     2018    244.0    558.2   1306.7   408.21      0.0    239.7      4.3     41.0      0.0    139.9       68    161.8    161.8       43     0.000     0.000     0.000     0.000       96        0        0        0        0       60       45     6.689       40     24.7    1.653     0.55       11        8     2018  Parnassus_SweetPotatoGDDCRO_Sand_S1_rainfed.PRM
