AquaCrop 6.0 (March 2017) - Output created on (date) : 3/5/2021   at (time) : 4:07:02 PM

    RunNr     Day1   Month1    Year1     Rain      ETo       GD     CO2      Irri   Infilt   Runoff    Drain   Upflow        E     E/Ex       Tr      TrW   Tr/Trx    SaltIn   SaltOut    SaltUp  SaltProf     Cycle   SaltStr  FertStr  WeedStr  TempStr   ExpStr   StoStr  BioMass  Brelative   HI     Yield     WPet     DayN   MonthN    YearN
                                           mm       mm    °C.day    ppm        mm       mm       mm       mm       mm       mm        %       mm       mm        %    ton/ha    ton/ha    ton/ha    ton/ha      days       %        %        %        %        %        %    ton/ha        %       %    ton/ha    kg/m3
   Tot(1)        1       10     1990    266.7    480.7   1295.0   355.00    217.8    265.6      1.1     23.7      0.0    119.7       82    367.9    367.9      100     0.000     0.000     0.000     0.000      101        0        0        0        0        0        0    16.361      100     53.7    8.783     1.81       15        1     1991  Parnassus_SweetPotatoGDDCRO_SandyLoam_S2_riegoIRR.PRM
   Tot(2)        1       10     1991    133.4    514.7   1296.8   356.03    374.6    131.7      1.7     14.8      0.0    127.7       80    391.4    391.4      100     0.000     0.000     0.000     0.000      102        0        0        0        0        0        0    16.341      100     53.8    8.793     1.70       17        1     1992  Parnassus_SweetPotatoGDDCRO_SandyLoam_S2_riegoIRR.PRM
   Tot(3)        1       10     1992     75.0    522.9   1294.1   356.27    426.1     75.0      0.0      0.0      0.0    116.7       76    409.9    404.8      100     0.000     0.000     0.000     0.000       99        0        0        0        0        0        0    15.917      100     53.7    8.545     1.62       12        1     1993  Parnassus_SweetPotatoGDDCRO_SandyLoam_S2_riegoIRR.PRM
   Tot(4)        1       10     1993    191.1    507.3   1295.5   357.47    339.2    184.9      6.2     29.7      0.0    127.4       81    387.0    392.1      100     0.000     0.000     0.000     0.000      100        0        0        0        0        0        0    16.114      100     53.7    8.659     1.69       15        1     1994  Parnassus_SweetPotatoGDDCRO_SandyLoam_S2_riegoIRR.PRM
   Tot(5)        1       10     1994    189.2    512.7   1299.0   359.82    343.9    183.9      5.3     34.0      0.0    125.5       80    394.3    394.3      100     0.000     0.000     0.000     0.000      101        0        0        0        0        0        0    16.412      100     53.7    8.819     1.70       15        1     1995  Parnassus_SweetPotatoGDDCRO_SandyLoam_S2_riegoIRR.PRM
   Tot(6)        1       10     1995    224.4    492.5   1294.2   361.72    335.2    220.2      4.2     62.2      0.0    131.8       92    387.9    384.3      100     0.000     0.000     0.000     0.000       99        0        0        0        0        0        0    16.082      100     53.8    8.656     1.67       13        1     1996  Parnassus_SweetPotatoGDDCRO_SandyLoam_S2_riegoIRR.PRM
   Tot(7)        1       10     1996    252.2    518.2   1297.0   363.17    326.1    246.3      5.9     66.0      0.0    124.6       86    409.3    412.9      100     0.000     0.000     0.000     0.000      105        0        0        0        0        0        0    17.308      100     53.9    9.324     1.75       19        1     1997  Parnassus_SweetPotatoGDDCRO_SandyLoam_S2_riegoIRR.PRM
   Tot(8)        1       10     1997    222.5    492.9   1295.1   365.22    311.0    218.2      4.3     41.3      0.0    135.5       90    379.3    379.3      100     0.000     0.000     0.000     0.000       98        0        0        0        0        0        0    15.979      100     53.8    8.600     1.68       13        1     1998  Parnassus_SweetPotatoGDDCRO_SandyLoam_S2_riegoIRR.PRM
   Tot(9)        1       10     1998    421.8    472.2   1296.4   367.54    209.2    369.1     52.7    129.9      0.0    109.7       79    367.0    367.0      100     0.000     0.000     0.000     0.000      101        0        0        0        0        0        0    16.793      100     53.7    9.024     1.90       15        1     1999  Parnassus_SweetPotatoGDDCRO_SandyLoam_S2_riegoIRR.PRM
  Tot(10)        1       10     1999    392.9    510.7   1294.6   368.97    284.4    375.3     17.6    148.9      0.0    123.6       92    410.9    410.9      100     0.000     0.000     0.000     0.000      111        0        0        0        0        0        0    18.651      100     53.7   10.015     1.88       25        1     2000  Parnassus_SweetPotatoGDDCRO_SandyLoam_S2_riegoIRR.PRM
  Tot(11)        1       10     2000    370.5    492.9   1294.3   370.35    241.7    346.9     23.6    110.9      0.0    125.6       82    378.3    373.9      100     0.000     0.000     0.000     0.000      105        0        0        0        0        0        0    17.596      100     53.8    9.458     1.88       19        1     2001  Parnassus_SweetPotatoGDDCRO_SandyLoam_S2_riegoIRR.PRM
  Tot(12)        1       10     2001    455.1    474.8   1301.5   372.21    168.4    430.3     24.8    136.9      0.0    126.4       87    363.2    367.6      100     0.000     0.000     0.000     0.000      103        0        0        0        0        0        0    17.447      100     53.8    9.394     1.93       17        1     2002  Parnassus_SweetPotatoGDDCRO_SandyLoam_S2_riegoIRR.PRM
  Tot(13)        1       10     2002    205.1    482.7   1295.7   374.54    297.9    199.5      5.6     41.3      0.0    113.0       77    371.6    371.6      100     0.000     0.000     0.000     0.000       98        0        0        0        0        0        0    16.374      100     53.8    8.813     1.83       13        1     2003  Parnassus_SweetPotatoGDDCRO_SandyLoam_S2_riegoIRR.PRM
  Tot(14)        1       10     2003    291.2    498.9   1301.8   376.66    225.2    284.3      6.9     20.8      0.0    126.4       88    390.2    390.2      100     0.000     0.000     0.000     0.000       99        0        0        0        0        0        0    16.805      100     53.8    9.038     1.76       13        1     2004  Parnassus_SweetPotatoGDDCRO_SandyLoam_S2_riegoIRR.PRM
  Tot(15)        1       10     2004    141.3    544.0   1304.9   378.66    388.3    140.9      0.4      5.3      0.0    122.3       79    428.3    428.3      100     0.000     0.000     0.000     0.000      100        0        0        0        0        0        0    17.201      100     53.8    9.258     1.69       14        1     2005  Parnassus_SweetPotatoGDDCRO_SandyLoam_S2_riegoIRR.PRM
  Tot(16)        1       10     2005    709.8    451.0   1299.1   380.85    157.4    629.1     80.7    334.4      0.0    117.3       99    363.0    363.0      100     0.000     0.000     0.000     0.000      103        0        0        0        0        0        0    17.565      100     53.8    9.451     1.98       18        1     2006  Parnassus_SweetPotatoGDDCRO_SandyLoam_S2_riegoIRR.PRM
  Tot(17)        1       10     2006    208.1    489.5   1304.2   382.85    292.7    202.2      5.9     26.0      0.0    124.4       83    372.7    372.7      100     0.000     0.000     0.000     0.000       95        0        0        0        0        0        0    16.419      100     53.8    8.834     1.78        9        1     2007  Parnassus_SweetPotatoGDDCRO_SandyLoam_S2_riegoIRR.PRM
  Tot(18)        1       10     2007    615.8    469.0   1298.7   384.70    217.7    544.3     71.5    296.7      0.0    117.6       94    375.6    375.6      100     0.000     0.000     0.000     0.000      104        0        0        0        0        0        0    17.885      100     53.8    9.630     1.96       19        1     2008  Parnassus_SweetPotatoGDDCRO_SandyLoam_S2_riegoIRR.PRM
  Tot(19)        1       10     2008    265.9    487.5   1302.9   386.51    290.2    256.3      9.6     68.9      0.0    126.4       89    378.4    378.4      100     0.000     0.000     0.000     0.000      103        0        0        0        0        0        0    17.909      100     53.8    9.642     1.92       18        1     2009  Parnassus_SweetPotatoGDDCRO_SandyLoam_S2_riegoIRR.PRM
  Tot(20)        1       10     2009    249.9    482.5   1301.4   388.66    297.1    232.9     17.0     58.0      0.0    127.7       88    371.7    371.7      100     0.000     0.000     0.000     0.000       98        0        0        0        0        0        0    17.091      100     53.8    9.198     1.85       12        1     2010  Parnassus_SweetPotatoGDDCRO_SandyLoam_S2_riegoIRR.PRM
  Tot(21)        1       10     2010    297.1    496.2   1299.4   390.77    258.3    287.9      9.2     62.9      0.0    119.9       88    391.6    391.6      100     0.000     0.000     0.000     0.000      109        0        0        0        0        0        0    19.277      100     53.8   10.370     2.03       24        1     2011  Parnassus_SweetPotatoGDDCRO_SandyLoam_S2_riegoIRR.PRM
  Tot(22)        1       10     2011    208.1    498.0   1296.9   392.75    320.4    204.3      3.8     29.0      0.0    130.2       94    393.2    393.2      100     0.000     0.000     0.000     0.000      100        0        0        0        0        0        0    17.484      100     53.7    9.388     1.80       14        1     2012  Parnassus_SweetPotatoGDDCRO_SandyLoam_S2_riegoIRR.PRM
  Tot(23)        1       10     2012    277.9    494.6   1299.4   395.19    327.2    242.1     35.8     93.1      0.0    122.8       84    381.1    381.1      100     0.000     0.000     0.000     0.000      100        0        0        0        0        0        0    17.590      100     53.8    9.467     1.89       15        1     2013  Parnassus_SweetPotatoGDDCRO_SandyLoam_S2_riegoIRR.PRM
  Tot(24)        1       10     2013    139.2    481.4   1306.2   397.58    324.9    138.3      0.9      3.5      0.0    113.2       81    373.9    373.9      100     0.000     0.000     0.000     0.000       97        0        0        0        0        0        0    17.131      100     53.6    9.188     1.89       11        1     2014  Parnassus_SweetPotatoGDDCRO_SandyLoam_S2_riegoIRR.PRM
  Tot(25)        1       10     2014    197.7    482.6   1298.0   399.74    257.5    196.2      1.5      1.3      0.0    113.5       76    365.8    370.8      100     0.000     0.000     0.000     0.000       98        0        0        0        0        0        0    17.403      100     53.8    9.367     1.96       12        1     2015  Parnassus_SweetPotatoGDDCRO_SandyLoam_S2_riegoIRR.PRM
  Tot(26)        1       10     2015    272.3    460.6   1300.5   402.52    186.4    271.3      1.0      5.9      0.0    126.5       91    352.7    352.7      100     0.000     0.000     0.000     0.000       96        0        0        0        0        0        0    17.233      100     53.8    9.267     1.94       10        1     2016  Parnassus_SweetPotatoGDDCRO_SandyLoam_S2_riegoIRR.PRM
  Tot(27)        1       10     2016    308.3    456.4   1299.9   405.21    191.1    304.6      3.7     46.6      0.0    123.6       94    352.9    352.9      100     0.000     0.000     0.000     0.000       98        0        0        0        0        0        0    17.635      100     53.8    9.491     2.00       12        1     2017  Parnassus_SweetPotatoGDDCRO_SandyLoam_S2_riegoIRR.PRM
  Tot(28)        1       10     2017    602.5    419.9   1294.6   407.21     76.0    579.0     23.5    204.1      0.0    121.4       94    318.9    318.9      100     0.000     0.000     0.000     0.000      100        0        0        0        0        0        0    18.143      100     53.7    9.749     2.22       14        1     2018  Parnassus_SweetPotatoGDDCRO_SandyLoam_S2_riegoIRR.PRM
  Tot(29)        1       10     2018    172.4    479.4   1295.5   409.21    349.2    167.2      5.2     46.5      0.0    128.1       91    369.3    369.3      100     0.000     0.000     0.000     0.000       98        0        0        0        0        0        0    17.544      100     53.8    9.442     1.91       13        1     2019  Parnassus_SweetPotatoGDDCRO_SandyLoam_S2_riegoIRR.PRM
