AquaCrop 6.0 (March 2017) - Output created on (date) : 3/5/2021   at (time) : 4:03:04 PM

    RunNr     Day1   Month1    Year1     Rain      ETo       GD     CO2      Irri   Infilt   Runoff    Drain   Upflow        E     E/Ex       Tr      TrW   Tr/Trx    SaltIn   SaltOut    SaltUp  SaltProf     Cycle   SaltStr  FertStr  WeedStr  TempStr   ExpStr   StoStr  BioMass  Brelative   HI     Yield     WPet     DayN   MonthN    YearN
                                           mm       mm    °C.day    ppm        mm       mm       mm       mm       mm       mm        %       mm       mm        %    ton/ha    ton/ha    ton/ha    ton/ha      days       %        %        %        %        %        %    ton/ha        %       %    ton/ha    kg/m3
   Tot(1)        1        5     1990    130.3    611.2   1303.9   354.39    443.9    129.1      1.2      5.1      0.0    132.8       68    461.3    461.3      100     0.000     0.000     0.000     0.000       94        0        0        0        0        0        0    14.827      100     53.8    7.973     1.35        9        8     1990  Amityhall_SweetPotatoGDDCRO_Loam_S1_riegoIRR.PRM
   Tot(2)        1        5     1991    123.7    589.5   1298.3   355.61    449.8    121.0      2.7     17.9      0.0    126.8       71    453.5    453.5      100     0.000     0.000     0.000     0.000       95        0        0        0        0        0        0    14.919      100     53.8    8.023     1.39       10        8     1991  Amityhall_SweetPotatoGDDCRO_Loam_S1_riegoIRR.PRM
   Tot(3)        1        5     1992    139.4    604.6   1302.7   356.45    428.2    138.8      0.6      3.9      0.0    130.0       69    459.9    459.9      100     0.000     0.000     0.000     0.000       95        0        0        0        0        0        0    14.959      100     53.8    8.044     1.37       10        8     1992  Amityhall_SweetPotatoGDDCRO_Loam_S1_riegoIRR.PRM
   Tot(4)        1        5     1993    281.3    572.2   1294.6   356.10    354.6    273.9      7.4     52.7      0.0    153.4       92    448.7    448.7      100     0.000     0.000     0.000     0.000       97        0        0        0        0        0        0    15.135      100     53.8    8.147     1.36       12        8     1993  Amityhall_SweetPotatoGDDCRO_Loam_S1_riegoIRR.PRM
   Tot(5)        1        5     1994    116.2    653.1   1306.7   358.83    508.9    116.2      0.0      0.0      0.0    144.5       74    506.5    506.5      100     0.000     0.000     0.000     0.000       93        0        0        0        0        0        0    14.849      100     53.8    7.988     1.23        8        8     1994  Amityhall_SweetPotatoGDDCRO_Loam_S1_riegoIRR.PRM
   Tot(6)        1        5     1995    176.3    597.5   1303.6   360.82    407.8    176.2      0.1      6.3      0.0    143.8       76    454.1    454.1      100     0.000     0.000     0.000     0.000       92        0        0        0        0        0        0    14.747      100     53.8    7.935     1.33        7        8     1995  Amityhall_SweetPotatoGDDCRO_Loam_S1_riegoIRR.PRM
   Tot(7)        1        5     1996    149.1    613.8   1300.0   362.61    430.1    148.9      0.2      0.0      0.0    136.3       72    469.8    469.8      100     0.000     0.000     0.000     0.000       94        0        0        0        0        0        0    14.975      100     53.8    8.056     1.33        9        8     1996  Amityhall_SweetPotatoGDDCRO_Loam_S1_riegoIRR.PRM
   Tot(8)        1        5     1997    243.7    605.0   1303.0   363.73    397.3    224.1     19.6     68.8      0.0    134.7       65    443.1    443.1      100     0.000     0.000     0.000     0.000       95        0        0        0        0        0        0    15.480      100     53.8    8.333     1.45       10        8     1997  Amityhall_SweetPotatoGDDCRO_Loam_S1_riegoIRR.PRM
   Tot(9)        1        5     1998    172.5    596.2   1298.0   366.70    406.4    168.1      4.4      9.7      0.0    146.2       74    445.4    445.4      100     0.000     0.000     0.000     0.000       89        0        0        0        0        0        0    14.459      100     53.8    7.782     1.32        4        8     1998  Amityhall_SweetPotatoGDDCRO_Loam_S1_riegoIRR.PRM
  Tot(10)        1        5     1999    251.3    595.1   1297.7   368.38    323.9    249.5      1.8      8.3      0.0    143.0       75    449.1    449.1      100     0.000     0.000     0.000     0.000       95        0        0        0        0        0        0    15.496      100     53.7    8.321     1.41       10        8     1999  Amityhall_SweetPotatoGDDCRO_Loam_S1_riegoIRR.PRM
  Tot(11)        1        5     2000    189.4    614.7   1296.4   369.55    386.6    187.9      1.5      5.6      0.0    135.4       67    460.8    460.8      100     0.000     0.000     0.000     0.000       95        0        0        0        0        0        0    15.560      100     53.7    8.355     1.41       10        8     2000  Amityhall_SweetPotatoGDDCRO_Loam_S1_riegoIRR.PRM
  Tot(12)        1        5     2001    205.3    606.6   1296.5   371.14    434.6    198.6      6.7     38.3      0.0    154.0       84    467.7    467.7      100     0.000     0.000     0.000     0.000       94        0        0        0        0        0        0    15.328      100     53.8    8.246     1.33        9        8     2001  Amityhall_SweetPotatoGDDCRO_Loam_S1_riegoIRR.PRM
  Tot(13)        1        5     2002    407.0    573.9   1303.4   373.28    371.5    365.9     41.1    208.1      0.0    125.5       68    430.7    430.7      100     0.000     0.000     0.000     0.000       97        0        0        0        0        0        0    16.042      100     53.8    8.631     1.56       12        8     2002  Amityhall_SweetPotatoGDDCRO_Loam_S1_riegoIRR.PRM
  Tot(14)        1        5     2003    278.2    603.1   1294.3   375.80    356.0    263.2     15.0     49.2      0.0    133.6       70    460.7    454.5      100     0.000     0.000     0.000     0.000       95        0        0        0        0        0        0    15.925      100     53.8    8.564     1.44        8        8     2003  Amityhall_SweetPotatoGDDCRO_Loam_S1_riegoIRR.PRM
  Tot(15)        1        5     2004    135.0    616.4   1301.3   377.52    437.4    134.7      0.3      0.0      0.0    137.5       69    463.0    469.2      100     0.000     0.000     0.000     0.000       93        0        0        0        0        0        0    15.462      100     53.8    8.318     1.39        8        8     2004  Amityhall_SweetPotatoGDDCRO_Loam_S1_riegoIRR.PRM
  Tot(16)        1        5     2005    756.7    526.8   1294.9   379.80    159.1    635.2    121.5    284.6      0.0    142.3       83    394.2    394.2      100     0.000     0.000     0.000     0.000       94        0        0        0        0        0        0    15.781      100     53.6    8.463     1.58        8        8     2005  Amityhall_SweetPotatoGDDCRO_Loam_S1_riegoIRR.PRM
  Tot(17)        1        5     2006    294.0    588.6   1304.5   381.90    325.0    284.2      9.8     67.9      0.0    130.5       67    434.7    434.7      100     0.000     0.000     0.000     0.000       93        0        0        0        0        0        0    15.784      100     53.8    8.488     1.51        8        8     2006  Amityhall_SweetPotatoGDDCRO_Loam_S1_riegoIRR.PRM
  Tot(18)        1        5     2007    278.6    568.7   1297.8   383.79    334.6    270.6      8.0     47.6      0.0    136.1       82    443.4    443.4      100     0.000     0.000     0.000     0.000       92        0        0        0        0        0        0    15.541      100     53.8    8.362     1.45        7        8     2007  Amityhall_SweetPotatoGDDCRO_Loam_S1_riegoIRR.PRM
  Tot(19)        1        5     2008    237.2    590.6   1306.3   385.60    362.1    211.5     25.7     31.4      0.0    130.3       67    439.0    439.0      100     0.000     0.000     0.000     0.000       94        0        0        0        0        0        0    16.023      100     53.8    8.617     1.52        9        8     2008  Amityhall_SweetPotatoGDDCRO_Loam_S1_riegoIRR.PRM
  Tot(20)        1        5     2009    257.1    577.6   1304.1   387.43    324.1    254.2      2.9     28.9      0.0    141.7       77    434.2    434.2      100     0.000     0.000     0.000     0.000       96        0        0        0        0        0        0    16.252      100     53.8    8.740     1.52       11        8     2009  Amityhall_SweetPotatoGDDCRO_Loam_S1_riegoIRR.PRM
  Tot(21)        1        5     2010    486.8    525.2   1303.3   389.90    170.6    443.5     43.3    110.8      0.0    137.2       79    389.7    389.7      100     0.000     0.000     0.000     0.000       93        0        0        0        0        0        0    16.071      100     53.8    8.646     1.65        7        8     2010  Amityhall_SweetPotatoGDDCRO_Loam_S1_riegoIRR.PRM
  Tot(22)        1        5     2011    465.1    553.7   1303.1   391.65    220.6    427.5     37.6    138.4      0.0    135.9       71    400.6    400.6      100     0.000     0.000     0.000     0.000       95        0        0        0        0        0        0    16.384      100     53.8    8.820     1.65       10        8     2011  Amityhall_SweetPotatoGDDCRO_Loam_S1_riegoIRR.PRM
  Tot(23)        1        5     2012    260.8    581.5   1304.4   393.85    359.7    250.8     10.0     27.2      0.0    143.0       78    439.7    439.7      100     0.000     0.000     0.000     0.000       93        0        0        0        0        0        0    16.048      100     53.8    8.633     1.49        8        8     2012  Amityhall_SweetPotatoGDDCRO_Loam_S1_riegoIRR.PRM
  Tot(24)        1        5     2013    206.0    570.6   1303.4   396.52    344.5    204.7      1.3      0.8      0.0    147.8       80    425.3    425.3      100     0.000     0.000     0.000     0.000       94        0        0        0        0        0        0    16.383      100     53.8    8.810     1.54        9        8     2013  Amityhall_SweetPotatoGDDCRO_Loam_S1_riegoIRR.PRM
  Tot(25)        1        5     2014    166.3    587.2   1307.3   398.65    405.1    163.9      2.4     12.9      0.0    143.0       76    439.9    439.9      100     0.000     0.000     0.000     0.000       94        0        0        0        0        0        0    16.320      100     55.0    8.976     1.55        9        8     2014  Amityhall_SweetPotatoGDDCRO_Loam_S1_riegoIRR.PRM
  Tot(26)        1        5     2015    170.5    579.0   1296.0   400.83    386.8    166.7      3.8     10.4      0.0    137.6       74    432.2    432.2      100     0.000     0.000     0.000     0.000       94        0        0        0        0        0        0    16.505      100     53.6    8.852     1.56        8        8     2015  Amityhall_SweetPotatoGDDCRO_Loam_S1_riegoIRR.PRM
  Tot(27)        1        5     2016    289.2    562.0   1302.7   404.21    292.8    282.8      6.4     16.8      0.0    146.3       83    423.4    423.4      100     0.000     0.000     0.000     0.000       92        0        0        0        0        0        0    16.283      100     53.8    8.762     1.54        6        8     2016  Amityhall_SweetPotatoGDDCRO_Loam_S1_riegoIRR.PRM
  Tot(28)        1        5     2017    400.3    537.3   1306.8   406.21    327.2    340.8     59.5    145.7      0.0    134.7       82    409.6    409.6      100     0.000     0.000     0.000     0.000       94        0        0        0        0        0        0    16.540      100     53.8    8.898     1.64        9        8     2017  Amityhall_SweetPotatoGDDCRO_Loam_S1_riegoIRR.PRM
  Tot(29)        1        5     2018    244.0    558.1   1306.7   408.21    349.5    238.4      5.6     39.6      0.0    149.9       89    425.3    425.3      100     0.000     0.000     0.000     0.000       96        0        0        0        0        0        0    16.917      100     55.0    9.304     1.63       11        8     2018  Amityhall_SweetPotatoGDDCRO_Loam_S1_riegoIRR.PRM
