AquaCrop 6.0 (March 2017) - Output created on (date) : 3/5/2021   at (time) : 4:11:10 PM

    RunNr     Day1   Month1    Year1     Rain      ETo       GD     CO2      Irri   Infilt   Runoff    Drain   Upflow        E     E/Ex       Tr      TrW   Tr/Trx    SaltIn   SaltOut    SaltUp  SaltProf     Cycle   SaltStr  FertStr  WeedStr  TempStr   ExpStr   StoStr  BioMass  Brelative   HI     Yield     WPet     DayN   MonthN    YearN
                                           mm       mm    °C.day    ppm        mm       mm       mm       mm       mm       mm        %       mm       mm        %    ton/ha    ton/ha    ton/ha    ton/ha      days       %        %        %        %        %        %    ton/ha        %       %    ton/ha    kg/m3
   Tot(1)        1        5     1990    102.5    447.9   1516.3   354.39    343.0    101.2      1.3     11.0      0.0    173.0       79    271.1    265.6      100     0.000     0.000     0.000     0.000       73        0        0        0        0        0        0     8.047      100     57.5    4.629     1.04       14        7     1990  Amityhall_TomatoGDDCRO_Loam_S1_riegoIRR.PRM
   Tot(2)        1        5     1991    112.3    433.2   1529.3   355.61    340.1    109.6      2.7     20.8      0.0    167.6       83    272.5    272.9      100     0.000     0.000     0.000     0.000       74        0        0        0        0        0        0     8.198      100     57.7    4.727     1.07       15        7     1991  Amityhall_TomatoGDDCRO_Loam_S1_riegoIRR.PRM
   Tot(3)        1        5     1992    109.9    443.2   1529.3   356.45    326.6    109.3      0.6      6.6      0.0    169.3       80    272.0    273.1      100     0.000     0.000     0.000     0.000       74        0        0        0        0        0        0     8.177      100     57.5    4.704     1.07       15        7     1992  Amityhall_TomatoGDDCRO_Loam_S1_riegoIRR.PRM
   Tot(4)        1        5     1993    254.0    409.7   1539.8   356.10    237.1    246.5      7.5     57.8      0.0    174.4       94    262.1    260.6      100     0.000     0.000     0.000     0.000       75        0        0        0        0        0        0     8.294      100     57.7    4.782     1.10       16        7     1993  Amityhall_TomatoGDDCRO_Loam_S1_riegoIRR.PRM
   Tot(5)        1        5     1994     89.9    481.6   1502.9   358.83    390.0     89.8      0.1      0.0      0.0    188.0       84    302.7    302.7      100     0.000     0.000     0.000     0.000       72        0        0        0        0        0        0     7.997      100     55.7    4.455     0.91       13        7     1994  Amityhall_TomatoGDDCRO_Loam_S1_riegoIRR.PRM
   Tot(6)        1        5     1995    117.2    450.2   1503.9   360.82    334.7    117.1      0.1      6.2      0.0    178.4       83    277.9    277.7      100     0.000     0.000     0.000     0.000       72        0        0        0        0        0        0     8.034      100     55.7    4.475     0.98       13        7     1995  Amityhall_TomatoGDDCRO_Loam_S1_riegoIRR.PRM
   Tot(7)        1        5     1996    108.6    456.2   1512.3   362.61    346.7    108.4      0.2      2.8      0.0    177.8       84    286.7    288.4      100     0.000     0.000     0.000     0.000       73        0        0        0        0        0        0     8.183      100     55.7    4.558     0.98       14        7     1996  Amityhall_TomatoGDDCRO_Loam_S1_riegoIRR.PRM
   Tot(8)        1        5     1997    205.1    452.1   1530.4   363.73    315.0    184.8     20.3     72.4      0.0    175.5       76    262.9    261.6      100     0.000     0.000     0.000     0.000       74        0        0        0        0        0        0     8.380      100     57.7    4.832     1.10       15        7     1997  Amityhall_TomatoGDDCRO_Loam_S1_riegoIRR.PRM
   Tot(9)        1        5     1998    142.2    456.7   1494.5   366.70    325.8    137.3      4.9     19.6      0.0    180.4       80    274.4    274.5      100     0.000     0.000     0.000     0.000       71        0        0        0        0        0        0     7.983      100     53.9    4.301     0.95       12        7     1998  Amityhall_TomatoGDDCRO_Loam_S1_riegoIRR.PRM
  Tot(10)        1        5     1999    225.4    439.6   1530.0   368.38    225.8    223.5      1.9     10.7      0.0    181.6       86    268.6    269.2      100     0.000     0.000     0.000     0.000       74        0        0        0        0        0        0     8.481      100     57.7    4.891     1.09       15        7     1999  Amityhall_TomatoGDDCRO_Loam_S1_riegoIRR.PRM
  Tot(11)        1        5     2000    123.8    459.7   1508.6   369.55    335.9    122.3      1.5      9.4      0.0    180.8       81    279.1    278.4      100     0.000     0.000     0.000     0.000       73        0        0        0        0        0        0     8.345      100     55.7    4.649     1.01       14        7     2000  Amityhall_TomatoGDDCRO_Loam_S1_riegoIRR.PRM
  Tot(12)        1        5     2001    165.4    451.7   1506.2   371.14    344.9    158.4      7.0     42.5      0.0    185.3       89    286.8    287.0      100     0.000     0.000     0.000     0.000       73        0        0        0        0        0        0     8.369      100     55.7    4.662     0.99       14        7     2001  Amityhall_TomatoGDDCRO_Loam_S1_riegoIRR.PRM
  Tot(13)        1        5     2002    383.6    417.3   1533.4   373.28    270.6    342.3     41.3    211.5      0.0    163.3       79    249.9    250.7      100     0.000     0.000     0.000     0.000       75        0        0        0        0        0        0     8.716      100     57.7    5.026     1.22       16        7     2002  Amityhall_TomatoGDDCRO_Loam_S1_riegoIRR.PRM
  Tot(14)        1        5     2003    242.9    454.0   1519.4   375.80    271.8    228.6     14.3     58.4      0.0    180.4       80    271.6    271.3      100     0.000     0.000     0.000     0.000       73        0        0        0        0        0        0     8.501      100     57.5    4.890     1.08       14        7     2003  Amityhall_TomatoGDDCRO_Loam_S1_riegoIRR.PRM
  Tot(15)        1        5     2004     92.5    464.1   1520.0   377.52    363.0     92.2      0.3      0.0      0.0    182.1       82    284.6    284.4      100     0.000     0.000     0.000     0.000       73        0        0        0        0        0        0     8.517      100     57.5    4.900     1.05       14        7     2004  Amityhall_TomatoGDDCRO_Loam_S1_riegoIRR.PRM
  Tot(16)        1        5     2005    691.0    391.5   1527.5   379.80    109.4    574.8    116.2    278.2      0.0    177.7       91    232.6    232.6      100     0.000     0.000     0.000     0.000       73        0        0        0        0        0        0     8.576      100     57.5    4.934     1.20       14        7     2005  Amityhall_TomatoGDDCRO_Loam_S1_riegoIRR.PRM
  Tot(17)        1        5     2006    220.8    438.2   1503.6   381.90    285.7    211.2      9.6     75.7      0.0    174.5       79    257.8    257.4      100     0.000     0.000     0.000     0.000       72        0        0        0        0        0        0     8.455      100     55.7    4.710     1.09       13        7     2006  Amityhall_TomatoGDDCRO_Loam_S1_riegoIRR.PRM
  Tot(18)        1        5     2007    234.8    417.9   1504.1   383.79    255.9    226.8      8.0     57.1      0.0    172.0       90    264.9    264.8      100     0.000     0.000     0.000     0.000       72        0        0        0        0        0        0     8.493      100     55.7    4.731     1.08       13        7     2007  Amityhall_TomatoGDDCRO_Loam_S1_riegoIRR.PRM
  Tot(19)        1        5     2008    121.5    440.3   1513.5   385.60    313.3    119.8      1.7      9.4      0.0    172.2       79    262.6    262.6      100     0.000     0.000     0.000     0.000       73        0        0        0        0        0        0     8.656      100     55.7    4.822     1.11       14        7     2008  Amityhall_TomatoGDDCRO_Loam_S1_riegoIRR.PRM
  Tot(20)        1        5     2009    247.7    420.1   1542.4   387.43    206.3    244.5      3.2     30.8      0.0    176.8       87    254.7    255.2      100     0.000     0.000     0.000     0.000       75        0        0        0        0        0        0     8.953      100     57.7    5.163     1.20       16        7     2009  Amityhall_TomatoGDDCRO_Loam_S1_riegoIRR.PRM
  Tot(21)        1        5     2010    363.7    401.7   1515.0   389.90    176.4    322.5     41.2    104.8      0.0    169.6       84    236.4    236.7      100     0.000     0.000     0.000     0.000       72        0        0        0        0        0        0     8.624      100     55.7    4.804     1.18       13        7     2010  Amityhall_TomatoGDDCRO_Loam_S1_riegoIRR.PRM
  Tot(22)        1        5     2011    373.4    407.4   1510.3   391.65    204.6    338.4     35.0    151.1      0.0    170.0       81    233.6    233.5      100     0.000     0.000     0.000     0.000       73        0        0        0        0        0       -0     8.751      100     55.7    4.875     1.21       14        7     2011  Amityhall_TomatoGDDCRO_Loam_S1_riegoIRR.PRM
  Tot(23)        1        5     2012    178.2    434.2   1500.0   393.85    281.2    174.2      4.0     20.6      0.0    175.7       85    265.7    265.2      100     0.000     0.000     0.000     0.000       72        0        0        0        0        0        0     8.654      100     55.7    4.821     1.09       13        7     2012  Amityhall_TomatoGDDCRO_Loam_S1_riegoIRR.PRM
  Tot(24)        1        5     2013    186.5    418.4   1515.6   396.52    231.7    184.9      1.6      4.4      0.0    174.7       84    249.0    249.3      100     0.000     0.000     0.000     0.000       73        0        0        0        0        0        0     8.852      100     57.5    5.092     1.20       14        7     2013  Amityhall_TomatoGDDCRO_Loam_S1_riegoIRR.PRM
  Tot(25)        1        5     2014    139.0    431.6   1515.2   398.65    309.2    136.5      2.5     15.3      0.0    180.7       87    261.8    262.4      100     0.000     0.000     0.000     0.000       73        0        0        0        0        0        0     8.887      100     57.5    5.113     1.16       14        7     2014  Amityhall_TomatoGDDCRO_Loam_S1_riegoIRR.PRM
  Tot(26)        1        5     2015    145.2    429.4   1516.8   400.83    292.6    141.2      4.0     14.8      0.0    177.6       83    254.4    255.7      100     0.000     0.000     0.000     0.000       73        0        0        0        0        0        0     8.943      100     57.5    5.145     1.19       14        7     2015  Amityhall_TomatoGDDCRO_Loam_S1_riegoIRR.PRM
  Tot(27)        1        5     2016    214.5    425.7   1510.7   404.21    236.0    210.2      4.3     21.3      0.0    180.6       87    255.9    253.8      100     0.000     0.000     0.000     0.000       72        0        0        0        0        0        0     8.858      100     55.7    4.935     1.13       13        7     2016  Amityhall_TomatoGDDCRO_Loam_S1_riegoIRR.PRM
  Tot(28)        1        5     2017    352.7    390.5   1516.1   406.21    250.2    293.6     59.1    153.4      0.0    160.6       88    241.2    241.2      100     0.000     0.000     0.000     0.000       73        0        0        0        0        0        0     9.015      100     57.5    5.186     1.29       14        7     2017  Amityhall_TomatoGDDCRO_Loam_S1_riegoIRR.PRM
  Tot(29)        1        5     2018    220.7    400.7   1526.7   408.21    238.9    214.3      6.4     47.6      0.0    168.6       90    248.6    248.8      100     0.000     0.000     0.000     0.000       74        0        0        0        0        0        0     9.193      100     55.9    5.138     1.23       15        7     2018  Amityhall_TomatoGDDCRO_Loam_S1_riegoIRR.PRM
