AquaCrop 6.0 (March 2017) - Output created on (date) : 3/5/2021   at (time) : 4:00:47 PM

    RunNr     Day1   Month1    Year1     Rain      ETo       GD     CO2      Irri   Infilt   Runoff    Drain   Upflow        E     E/Ex       Tr      TrW   Tr/Trx    SaltIn   SaltOut    SaltUp  SaltProf     Cycle   SaltStr  FertStr  WeedStr  TempStr   ExpStr   StoStr  BioMass  Brelative   HI     Yield     WPet     DayN   MonthN    YearN
                                           mm       mm    °C.day    ppm        mm       mm       mm       mm       mm       mm        %       mm       mm        %    ton/ha    ton/ha    ton/ha    ton/ha      days       %        %        %        %        %        %    ton/ha        %       %    ton/ha    kg/m3
   Tot(1)        1        5     1990    130.3    611.2   1303.9   354.39      0.0    129.9      0.4      0.0      0.0     89.4       41    274.5    274.5       64     0.000     0.000     0.000     0.000       94        0        0        0        0       55       28     9.028       61     45.0    4.061     1.12        9        8     1990  Amityhall_SweetPotatoGDDCRO_ClayLoam_S1_rainfed.PRM
   Tot(2)        1        5     1991    123.7    589.5   1298.3   355.61      0.0    121.8      1.9      0.0      0.0    116.9       58    245.1    245.1       58     0.000     0.000     0.000     0.000       95        0        0        0        0       56       34     8.148       55     39.1    3.184     0.88       10        8     1991  Amityhall_SweetPotatoGDDCRO_ClayLoam_S1_rainfed.PRM
   Tot(3)        1        5     1992    139.4    604.6   1302.7   356.45      0.0    139.3      0.1      0.0      0.0    102.8       50    269.2    269.2       62     0.000     0.000     0.000     0.000       95        0        0        0        0       53       30     8.956       60     40.9    3.659     0.99       10        8     1992  Amityhall_SweetPotatoGDDCRO_ClayLoam_S1_rainfed.PRM
   Tot(4)        1        5     1993    281.3    572.2   1294.6   356.10      0.0    260.8     20.5     17.5      0.0    153.0       92    326.3    326.3       73     0.000     0.000     0.000     0.000       97        0        0        0        0        1       20    11.263       75     45.9    5.172     1.08       12        8     1993  Amityhall_SweetPotatoGDDCRO_ClayLoam_S1_rainfed.PRM
   Tot(5)        1        5     1994    116.2    653.1   1306.7   358.83      0.0    116.2      0.0      0.0      0.0    126.7       52    226.0    226.0       51     0.000     0.000     0.000     0.000       93        0        0        0        0       61       40     6.706       45     36.2    2.426     0.69        8        8     1994  Amityhall_SweetPotatoGDDCRO_ClayLoam_S1_rainfed.PRM
   Tot(6)        1        5     1995    176.3    597.5   1303.6   360.82      0.0    174.5      1.8      3.2      0.0    117.4       51    272.8    272.8       67     0.000     0.000     0.000     0.000       92        0        0        0        0       61       27     8.911       61     45.5    4.051     1.05        7        8     1995  Amityhall_SweetPotatoGDDCRO_ClayLoam_S1_rainfed.PRM
   Tot(7)        1        5     1996    149.1    613.8   1300.0   362.61      0.0    149.1      0.0      0.0      0.0    122.5       52    255.2    255.2       61     0.000     0.000     0.000     0.000       94        0        0        0        0       61       31     8.122       54     42.2    3.425     0.91        9        8     1996  Amityhall_SweetPotatoGDDCRO_ClayLoam_S1_rainfed.PRM
   Tot(8)        1        5     1997    243.7    605.0   1303.0   363.73      0.0    210.8     32.9      9.6      0.0     69.4       32    358.2    358.2       83     0.000     0.000     0.000     0.000       95        0        0        0        0        4       13    12.656       82     53.4    6.755     1.59       10        8     1997  Amityhall_SweetPotatoGDDCRO_ClayLoam_S1_rainfed.PRM
   Tot(9)        1        5     1998    172.5    596.2   1298.0   366.70      0.0    168.2      4.3      0.0      0.0     90.0       40    303.5    303.5       72     0.000     0.000     0.000     0.000       89        0        0        0        0       51       22     9.848       68     50.3    4.958     1.26        4        8     1998  Amityhall_SweetPotatoGDDCRO_ClayLoam_S1_rainfed.PRM
  Tot(10)        1        5     1999    251.3    595.1   1297.7   368.38      0.0    251.0      0.3      0.0      0.0    112.3       58    365.2    365.2       82     0.000     0.000     0.000     0.000       95        0        0        0        0        6       14    12.703       82     49.1    6.233     1.31       10        8     1999  Amityhall_SweetPotatoGDDCRO_ClayLoam_S1_rainfed.PRM
  Tot(11)        1        5     2000    189.4    614.7   1296.4   369.55      0.0    189.4      0.0      0.0      0.0     89.1       42    322.0    322.0       72     0.000     0.000     0.000     0.000       95        0        0        0        0       49       21    10.979       71     47.3    5.195     1.27       10        8     2000  Amityhall_SweetPotatoGDDCRO_ClayLoam_S1_rainfed.PRM
  Tot(12)        1        5     2001    205.3    606.6   1296.5   371.14      0.0    190.6     14.7     11.9      0.0    161.8       76    244.9    244.9       57     0.000     0.000     0.000     0.000       94        0        0        0        0       58       34     8.077       53     39.1    3.154     0.78        9        8     2001  Amityhall_SweetPotatoGDDCRO_ClayLoam_S1_rainfed.PRM
  Tot(13)        1        5     2002    407.0    573.9   1303.4   373.28      0.0    304.3    102.7    114.9      0.0     88.0       46    333.4    333.4       78     0.000     0.000     0.000     0.000       97        0        0        0        0        2       16    12.628       79     50.6    6.390     1.52       12        8     2002  Amityhall_SweetPotatoGDDCRO_ClayLoam_S1_rainfed.PRM
  Tot(14)        1        5     2003    278.2    603.1   1294.3   375.80      0.0    259.8     18.4      4.9      0.0     91.3       47    389.0    386.9       86     0.000     0.000     0.000     0.000       95        0        0        0        0        4       11    13.521       86     49.9    6.750     1.41        8        8     2003  Amityhall_SweetPotatoGDDCRO_ClayLoam_S1_rainfed.PRM
  Tot(15)        1        5     2004    135.0    616.4   1301.3   377.52      0.0    135.0      0.0      0.0      0.0    110.8       48    250.9    252.9       60     0.000     0.000     0.000     0.000       93        0        0        0        0       59       32     8.481       55     42.5    3.607     1.00        8        8     2004  Amityhall_SweetPotatoGDDCRO_ClayLoam_S1_rainfed.PRM
  Tot(16)        1        5     2005    756.7    526.8   1294.9   379.80      0.0    524.4    232.3     95.6      0.0    141.3       82    393.6    393.6      100     0.000     0.000     0.000     0.000       94        0        0        0        0        1        0    15.759      100     53.6    8.452     1.58        8        8     2005  Amityhall_SweetPotatoGDDCRO_ClayLoam_S1_rainfed.PRM
  Tot(17)        1        5     2006    294.0    588.6   1304.5   381.90      0.0    270.3     23.7      0.0      0.0     86.2       43    393.3    393.3       91     0.000     0.000     0.000     0.000       93        0        0        0        0        3        7    14.335       91     53.2    7.628     1.60        8        8     2006  Amityhall_SweetPotatoGDDCRO_ClayLoam_S1_rainfed.PRM
  Tot(18)        1        5     2007    278.6    568.7   1297.8   383.79      0.0    260.5     18.1     14.9      0.0    132.6       79    335.6    335.6       77     0.000     0.000     0.000     0.000       92        0        0        0        0        0       18    11.962       77     46.9    5.615     1.20        7        8     2007  Amityhall_SweetPotatoGDDCRO_ClayLoam_S1_rainfed.PRM
  Tot(19)        1        5     2008    237.2    590.6   1306.3   385.60      0.0    218.7     18.5      0.0      0.0     76.8       38    355.0    355.0       82     0.000     0.000     0.000     0.000       94        0        0        0        0        3       13    13.087       82     53.3    6.975     1.62        9        8     2008  Amityhall_SweetPotatoGDDCRO_ClayLoam_S1_rainfed.PRM
  Tot(20)        1        5     2009    257.1    577.6   1304.1   387.43      0.0    250.3      6.8      5.3      0.0    129.6       70    351.8    351.8       82     0.000     0.000     0.000     0.000       96        0        0        0        0        1       14    13.431       83     48.4    6.498     1.35       11        8     2009  Amityhall_SweetPotatoGDDCRO_ClayLoam_S1_rainfed.PRM
  Tot(21)        1        5     2010    486.8    525.2   1303.3   389.90      0.0    411.3     75.5     19.9      0.0    101.7       58    388.2    388.2      100     0.000     0.000     0.000     0.000       93        0        0        0        0        1        0    16.012      100     53.8    8.614     1.77        7        8     2010  Amityhall_SweetPotatoGDDCRO_ClayLoam_S1_rainfed.PRM
  Tot(22)        1        5     2011    465.1    553.7   1303.1   391.65      0.0    385.1     80.0     48.5      0.0     86.3       44    396.5    396.5      100     0.000     0.000     0.000     0.000       95        0        0        0        0        2        0    16.201       99     56.5    9.157     1.90       10        8     2011  Amityhall_SweetPotatoGDDCRO_ClayLoam_S1_rainfed.PRM
  Tot(23)        1        5     2012    260.8    581.5   1304.4   393.85      0.0    247.9     12.9      0.0      0.0     99.3       51    340.0    340.0       79     0.000     0.000     0.000     0.000       93        0        0        0        0       27       16    12.523       78     48.6    6.091     1.39        8        8     2012  Amityhall_SweetPotatoGDDCRO_ClayLoam_S1_rainfed.PRM
  Tot(24)        1        5     2013    206.0    570.6   1303.4   396.52      0.0    205.3      0.7      0.0      0.0    102.6       55    333.8    333.8       79     0.000     0.000     0.000     0.000       94        0        0        0        0        5       16    13.034       80     47.9    6.237     1.44        9        8     2013  Amityhall_SweetPotatoGDDCRO_ClayLoam_S1_rainfed.PRM
  Tot(25)        1        5     2014    166.3    587.2   1307.3   398.65      0.0    165.5      0.8      0.0      0.0    129.8       64    271.1    271.1       65     0.000     0.000     0.000     0.000       94        0        0        0        0       55       27    10.243       63     42.8    4.381     1.10        9        8     2014  Amityhall_SweetPotatoGDDCRO_ClayLoam_S1_rainfed.PRM
  Tot(26)        1        5     2015    170.5    579.0   1296.0   400.83      0.0    167.8      2.7      0.0      0.0     85.1       44    314.6    314.6       75     0.000     0.000     0.000     0.000       94        0        0        0        0        4       20    12.205       75     46.8    5.713     1.43        8        8     2015  Amityhall_SweetPotatoGDDCRO_ClayLoam_S1_rainfed.PRM
  Tot(27)        1        5     2016    289.2    562.0   1302.7   404.21      0.0    284.0      5.2      0.0      0.0    108.9       61    373.9    373.9       89     0.000     0.000     0.000     0.000       92        0        0        0        0        1        9    14.437       90     51.4    7.415     1.54        6        8     2016  Amityhall_SweetPotatoGDDCRO_ClayLoam_S1_rainfed.PRM
  Tot(28)        1        5     2017    400.3    537.3   1306.8   406.21      0.0    325.3     75.0     47.1      0.0    109.9       66    375.6    375.6       92     0.000     0.000     0.000     0.000       94        0        0        0        0       12        6    15.267       93     52.1    7.947     1.64        9        8     2017  Amityhall_SweetPotatoGDDCRO_ClayLoam_S1_rainfed.PRM
  Tot(29)        1        5     2018    244.0    558.1   1306.7   408.21      0.0    229.3     14.7     16.5      0.0    137.9       80    307.4    307.4       73     0.000     0.000     0.000     0.000       96        0        0        0        0        1       21    12.476       74     47.0    5.863     1.32       11        8     2018  Amityhall_SweetPotatoGDDCRO_ClayLoam_S1_rainfed.PRM
