AquaCrop 6.0 (March 2017) - Output created on (date) : 3/5/2021   at (time) : 4:12:54 PM

    RunNr     Day1   Month1    Year1     Rain      ETo       GD     CO2      Irri   Infilt   Runoff    Drain   Upflow        E     E/Ex       Tr      TrW   Tr/Trx    SaltIn   SaltOut    SaltUp  SaltProf     Cycle   SaltStr  FertStr  WeedStr  TempStr   ExpStr   StoStr  BioMass  Brelative   HI     Yield     WPet     DayN   MonthN    YearN
                                           mm       mm    °C.day    ppm        mm       mm       mm       mm       mm       mm        %       mm       mm        %    ton/ha    ton/ha    ton/ha    ton/ha      days       %        %        %        %        %        %    ton/ha        %       %    ton/ha    kg/m3
   Tot(1)       31       10     1990    190.9    345.0   1543.9   355.00      0.0    190.6      0.3     26.0      0.0    121.1       74    113.0    113.0       56     0.000     0.000     0.000     0.000       77        0        0        0        0       33       32     4.671       55     44.6    2.085     0.89       17        1     1991  Amityhall_TomatoGDDCRO_Sand_S2_rainfed.PRM
   Tot(2)       31       10     1991     87.8    365.2   1537.9   356.03      0.0     86.3      1.5     19.2      0.0     74.3       28     61.3     61.3       50     0.000     0.000     0.000     0.000       77        0        0        0        0       61       44     2.335       27     40.9    0.954     0.70       17        1     1992  Amityhall_TomatoGDDCRO_Sand_S2_rainfed.PRM
   Tot(3)       31       10     1992     44.2    386.1   1525.0   356.27      0.0     44.2      0.0      0.0      0.0     58.8       17     48.6     48.4       61     0.000     0.000     0.000     0.000       75        0        0        0        0       68       32     1.695       20     50.2    0.852     0.79       15        1     1993  Amityhall_TomatoGDDCRO_Sand_S2_rainfed.PRM
   Tot(4)       31       10     1993    150.4    366.1   1547.5   357.47      0.0    145.5      4.9     30.4      0.0     84.1       39     97.7     94.9       55     0.000     0.000     0.000     0.000       77        0        0        0        0       48       30     3.910       45     46.3    1.811     1.00       17        1     1994  Amityhall_TomatoGDDCRO_Sand_S2_rainfed.PRM
   Tot(5)       31       10     1994    143.5    368.0   1549.8   359.82      0.0    138.4      5.1     42.3      0.0    104.9       38     58.4     61.3       52     0.000     0.000     0.000     0.000       74        0        0        0        0       62       43     2.152       25     39.8    0.857     0.53       17        1     1995  Amityhall_TomatoGDDCRO_Sand_S2_rainfed.PRM
   Tot(6)       31       10     1995     80.2    370.4   1542.3   361.72      0.0     80.2      0.0      0.0      0.0     92.3       33     55.8     55.8       51     0.000     0.000     0.000     0.000       76        0        0        0        0       62       41     2.164       25     45.5    0.984     0.66       16        1     1996  Amityhall_TomatoGDDCRO_Sand_S2_rainfed.PRM
   Tot(7)       31       10     1996    175.0    374.5   1557.3   363.17      0.0    170.2      4.8     65.3      0.0     99.8       45     74.4     74.4       43     0.000     0.000     0.000     0.000       78        0        0        0        0       54       44     2.828       32     41.9    1.184     0.68       19        1     1997  Amityhall_TomatoGDDCRO_Sand_S2_rainfed.PRM
   Tot(8)       31       10     1997    102.6    360.3   1530.3   365.22      0.0    102.6      0.0      0.0      0.0     90.2       39     79.2     79.0       49     0.000     0.000     0.000     0.000       75        0        0        0        0       52       37     3.085       36     45.1    1.393     0.82       15        1     1998  Amityhall_TomatoGDDCRO_Sand_S2_rainfed.PRM
   Tot(9)       31       10     1998    250.0    349.8   1554.8   367.54      0.0    235.6     14.4     61.9      0.0    106.5       56    133.6    133.9       70     0.000     0.000     0.000     0.000       76        0        0        0        0       39       21     5.475       63     54.4    2.980     1.24       17        1     1999  Amityhall_TomatoGDDCRO_Sand_S2_rainfed.PRM
  Tot(10)       31       10     1999    166.8    373.2   1563.5   368.97      0.0    163.3      3.5     61.4      0.0     98.8       41     71.8     71.8       50     0.000     0.000     0.000     0.000       81        0        0        0        0       58       45     2.861       30     43.6    1.247     0.73       22        1     2000  Amityhall_TomatoGDDCRO_Sand_S2_rainfed.PRM
  Tot(11)       31       10     2000    296.9    347.4   1555.0   370.35      0.0    276.6     20.3     93.5      0.0     77.5       40    164.8    164.8       91     0.000     0.000     0.000     0.000       78        0        0        0        0       21        6     7.474       83     58.4    4.366     1.81       19        1     2001  Amityhall_TomatoGDDCRO_Sand_S2_rainfed.PRM
  Tot(12)       31       10     2001    309.6    335.8   1554.9   372.21      0.0    288.5     21.1     97.4      0.0    119.3       60    127.9    127.9       78     0.000     0.000     0.000     0.000       77        0        0        0        0       41       18     5.527       62     57.4    3.173     1.28       18        1     2002  Amityhall_TomatoGDDCRO_Sand_S2_rainfed.PRM
  Tot(13)       31       10     2002    106.3    353.9   1534.1   374.54      0.0    106.3      0.0      0.0      0.0     89.5       38     83.0     82.7       55     0.000     0.000     0.000     0.000       75        0        0        0        0       55       32     3.372       39     47.0    1.586     0.92       15        1     2003  Amityhall_TomatoGDDCRO_Sand_S2_rainfed.PRM
  Tot(14)       31       10     2003    214.3    369.7   1534.8   376.66      0.0    212.3      2.0     25.7      0.0    109.2       57    144.9    145.0       69     0.000     0.000     0.000     0.000       76        0        0        0        0       36       22     5.721       64     50.9    2.913     1.15       16        1     2004  Amityhall_TomatoGDDCRO_Sand_S2_rainfed.PRM
  Tot(15)       31       10     2004    107.0    392.8   1528.7   378.66      0.0    107.0      0.0      0.0      0.0    103.5       31     65.2     65.0       64     0.000     0.000     0.000     0.000       76        0        0        0        0       63       25     2.456       27     51.1    1.255     0.74       16        1     2005  Amityhall_TomatoGDDCRO_Sand_S2_rainfed.PRM
  Tot(16)       31       10     2005    181.1    344.6   1556.2   380.85      0.0    180.6      0.5      5.7      0.0     97.6       54    138.0    138.4       72     0.000     0.000     0.000     0.000       77        0        0        0        0       40       20     6.164       67     54.2    3.341     1.42       18        1     2006  Amityhall_TomatoGDDCRO_Sand_S2_rainfed.PRM
  Tot(17)       31       10     2006    142.6    362.0   1524.9   382.85      0.0    142.2      0.4     33.1      0.0     97.8       46     80.8     80.8       49     0.000     0.000     0.000     0.000       74        0        0        0        0       52       41     3.236       37     40.9    1.325     0.74       14        1     2007  Amityhall_TomatoGDDCRO_Sand_S2_rainfed.PRM
  Tot(18)       31       10     2007    286.0    348.2   1553.4   384.70      0.0    252.8     33.2    116.0      0.0    103.4       54    101.9    101.9       57     0.000     0.000     0.000     0.000       77        0        0        0        0       51       33     4.267       46     48.4    2.063     1.01       18        1     2008  Amityhall_TomatoGDDCRO_Sand_S2_rainfed.PRM
  Tot(19)       31       10     2008    161.8    351.4   1551.9   386.51      0.0    155.1      6.7     62.1      0.0     96.4       41     64.0     64.0       49     0.000     0.000     0.000     0.000       75        0        0        0        0       58       44     2.732       30     39.2    1.071     0.69       18        1     2009  Amityhall_TomatoGDDCRO_Sand_S2_rainfed.PRM
  Tot(20)       31       10     2009    158.1    348.8   1514.3   388.66      0.0    150.7      7.4     26.1      0.0     66.8       28    116.3    114.9       79     0.000     0.000     0.000     0.000       75        0        0        0        0       42       16     5.106       57     55.1    2.811     1.54       15        1     2010  Amityhall_TomatoGDDCRO_Sand_S2_rainfed.PRM
  Tot(21)       31       10     2010    145.0    357.9   1566.1   390.77      0.0    144.2      0.8     19.8      0.0     86.6       42    105.4    106.7       59     0.000     0.000     0.000     0.000       81        0        0        0        0       52       31     4.713       48     50.3    2.369     1.24       22        1     2011  Amityhall_TomatoGDDCRO_Sand_S2_rainfed.PRM
  Tot(22)       31       10     2011     53.6    372.4   1534.5   392.75      0.0     53.6      0.0      0.0      0.0     68.3       21     50.0     49.9       60     0.000     0.000     0.000     0.000       76        0        0        0        0       68       36     1.970       21     48.7    0.959     0.81       16        1     2012  Amityhall_TomatoGDDCRO_Sand_S2_rainfed.PRM
  Tot(23)       31       10     2012     83.7    361.0   1534.4   395.19      0.0     83.7      0.0      2.8      0.0     77.6       35     72.5     72.6       49     0.000     0.000     0.000     0.000       76        0        0        0        0       54       43     3.122       34     40.5    1.263     0.84       16        1     2013  Amityhall_TomatoGDDCRO_Sand_S2_rainfed.PRM
  Tot(24)       31       10     2013     90.7    356.2   1519.7   397.58      0.0     90.7      0.0      7.4      0.0     82.3       33     69.1     69.0       51     0.000     0.000     0.000     0.000       74        0        0        0        0       59       36     2.879       32     46.4    1.335     0.88       14        1     2014  Amityhall_TomatoGDDCRO_Sand_S2_rainfed.PRM
  Tot(25)       31       10     2014    138.4    346.9   1528.3   399.74      0.0    137.9      0.5      0.0      0.0     82.8       44    123.3    123.2       66     0.000     0.000     0.000     0.000       75        0        0        0        0       37       23     5.502       60     49.8    2.739     1.33       15        1     2015  Amityhall_TomatoGDDCRO_Sand_S2_rainfed.PRM
  Tot(26)       31       10     2015    171.1    337.1   1541.9   402.52      0.0    170.7      0.4      6.5      0.0    127.0       73    106.2    106.3       57     0.000     0.000     0.000     0.000       75        0        0        0        0       42       32     4.863       53     47.1    2.289     0.98       15        1     2016  Amityhall_TomatoGDDCRO_Sand_S2_rainfed.PRM
  Tot(27)       31       10     2016    160.2    342.9   1527.6   405.21      0.0    159.1      1.1     30.7      0.0    105.7       59     92.2     92.2       52     0.000     0.000     0.000     0.000       75        0        0        0        0       44       37     4.251       46     43.2    1.835     0.93       15        1     2017  Amityhall_TomatoGDDCRO_Sand_S2_rainfed.PRM
  Tot(28)       31       10     2017    403.5    300.9   1554.8   407.21      0.0    390.3     13.2    102.2      0.0    118.3       84    169.9    169.9       92     0.000     0.000     0.000     0.000       76        0        0        0        0        5        5     8.779       93     59.8    5.251     1.83       17        1     2018  Amityhall_TomatoGDDCRO_Sand_S2_rainfed.PRM
  Tot(29)       31       10     2018     48.1    354.7   1527.4   409.21      0.0     48.1      0.0      0.0      0.0     55.1       20     59.5     59.4       55     0.000     0.000     0.000     0.000       75        0        0        0        0       62       34     2.588       28     48.6    1.257     1.10       15        1     2019  Amityhall_TomatoGDDCRO_Sand_S2_rainfed.PRM
