AquaCrop 6.0 (March 2017) - Output created on (date) : 3/5/2021   at (time) : 4:13:58 PM

    RunNr     Day1   Month1    Year1     Rain      ETo       GD     CO2      Irri   Infilt   Runoff    Drain   Upflow        E     E/Ex       Tr      TrW   Tr/Trx    SaltIn   SaltOut    SaltUp  SaltProf     Cycle   SaltStr  FertStr  WeedStr  TempStr   ExpStr   StoStr  BioMass  Brelative   HI     Yield     WPet     DayN   MonthN    YearN
                                           mm       mm    °C.day    ppm        mm       mm       mm       mm       mm       mm        %       mm       mm        %    ton/ha    ton/ha    ton/ha    ton/ha      days       %        %        %        %        %        %    ton/ha        %       %    ton/ha    kg/m3
   Tot(1)       31        5     1990     98.3    447.1   1504.3   354.39    357.9     97.2      1.1     15.8      0.0    169.2       81    281.3    276.2      100     0.000     0.000     0.000     0.000       72        0        0        0        0        0        0     7.920      100     55.7    4.412     0.98       12        8     1990  Amityhall_TomatoGDDCRO_SandyLoam_S1_riegoIRR.PRM
   Tot(2)       31        5     1991     41.1    442.1   1520.2   355.61    389.0     41.1      0.0      0.0      0.0    166.2       80    275.6    276.2      100     0.000     0.000     0.000     0.000       73        0        0        0        0        0        0     8.080      100     57.5    4.649     1.05       13        8     1991  Amityhall_TomatoGDDCRO_SandyLoam_S1_riegoIRR.PRM
   Tot(3)       31        5     1992     80.1    442.3   1508.4   356.45    356.2     80.0      0.1      0.0      0.0    169.1       82    278.2    277.5      100     0.000     0.000     0.000     0.000       72        0        0        0        0        0        0     7.980      100     55.7    4.446     0.99       12        8     1992  Amityhall_TomatoGDDCRO_SandyLoam_S1_riegoIRR.PRM
   Tot(4)       31        5     1993    110.0    432.2   1519.6   356.10    341.7    109.2      0.8     14.5      0.0    170.3       87    277.4    277.6      100     0.000     0.000     0.000     0.000       73        0        0        0        0        0        0     8.089      100     57.5    4.654     1.04       13        8     1993  Amityhall_TomatoGDDCRO_SandyLoam_S1_riegoIRR.PRM
   Tot(5)       31        5     1994     63.2    491.3   1511.7   358.83    413.4     63.2      0.0      0.0      0.0    182.9       78    304.6    304.0      100     0.000     0.000     0.000     0.000       72        0        0        0        0        0        0     8.022      100     55.7    4.469     0.92       12        8     1994  Amityhall_TomatoGDDCRO_SandyLoam_S1_riegoIRR.PRM
   Tot(6)       31        5     1995    158.5    431.7   1496.4   360.82    284.3    158.3      0.2      0.0      0.0    179.4       87    267.1    270.1      100     0.000     0.000     0.000     0.000       71        0        0        0        0        0        0     7.932      100     53.9    4.274     0.96       11        8     1995  Amityhall_TomatoGDDCRO_SandyLoam_S1_riegoIRR.PRM
   Tot(7)       31        5     1996     99.5    456.5   1508.3   362.61    348.7     99.5      0.0      0.0      0.0    180.9       82    278.7    276.3      100     0.000     0.000     0.000     0.000       72        0        0        0        0        0        0     8.103      100     55.7    4.514     0.98       12        8     1996  Amityhall_TomatoGDDCRO_SandyLoam_S1_riegoIRR.PRM
   Tot(8)       31        5     1997    188.1    418.7   1521.1   363.73    300.8    177.0     11.1     56.1      0.0    165.0       87    268.2    268.5      100     0.000     0.000     0.000     0.000       73        0        0        0        0        0        0     8.241      100     57.5    4.741     1.09       13        8     1997  Amityhall_TomatoGDDCRO_SandyLoam_S1_riegoIRR.PRM
   Tot(9)       31        5     1998    141.0    439.5   1489.9   366.70    314.4    136.1      4.9     20.4      0.0    175.4       81    265.8    265.1      100     0.000     0.000     0.000     0.000       70        0        0        0        0        0        0     7.950      100     53.9    4.284     0.97       10        8     1998  Amityhall_TomatoGDDCRO_SandyLoam_S1_riegoIRR.PRM
  Tot(10)       31        5     1999    167.5    436.0   1519.3   368.38    280.3    166.4      1.1      5.8      0.0    181.9       88    270.0    270.1      100     0.000     0.000     0.000     0.000       73        0        0        0        0        0        0     8.367      100     57.5    4.813     1.07       13        8     1999  Amityhall_TomatoGDDCRO_SandyLoam_S1_riegoIRR.PRM
  Tot(11)       31        5     2000    159.9    440.4   1516.9   369.55    301.6    157.9      2.0     18.5      0.0    175.3       85    276.8    276.7      100     0.000     0.000     0.000     0.000       73        0        0        0        0        0        0     8.391      100     55.9    4.689     1.04       13        8     2000  Amityhall_TomatoGDDCRO_SandyLoam_S1_riegoIRR.PRM
  Tot(12)       31        5     2001     65.5    453.8   1503.5   371.14    375.6     65.5      0.0      0.0      0.0    174.0       80    278.3    278.3      100     0.000     0.000     0.000     0.000       72        0        0        0        0        0        0     8.240      100     55.7    4.590     1.02       12        8     2001  Amityhall_TomatoGDDCRO_SandyLoam_S1_riegoIRR.PRM
  Tot(13)       31        5     2002    160.1    420.3   1530.3   373.28    332.2    154.5      5.6     60.6      0.0    164.2       88    272.8    272.9      100     0.000     0.000     0.000     0.000       74        0        0        0        0        0        0     8.540      100     57.5    4.913     1.12       14        8     2002  Amityhall_TomatoGDDCRO_SandyLoam_S1_riegoIRR.PRM
  Tot(14)       31        5     2003    175.1    436.7   1504.5   375.80    294.6    169.7      5.4     24.7      0.0    181.3       87    269.0    268.7      100     0.000     0.000     0.000     0.000       72        0        0        0        0        0        0     8.355      100     55.7    4.654     1.03       12        8     2003  Amityhall_TomatoGDDCRO_SandyLoam_S1_riegoIRR.PRM
  Tot(15)       31        5     2004    126.0    453.4   1510.5   377.52    348.4    121.0      5.0     12.0      0.0    173.6       81    280.5    281.6      100     0.000     0.000     0.000     0.000       72        0        0        0        0        0        0     8.395      100     55.7    4.676     1.03       12        8     2004  Amityhall_TomatoGDDCRO_SandyLoam_S1_riegoIRR.PRM
  Tot(16)       31        5     2005    578.5    378.7   1517.3   379.80    179.4    464.8    113.7    256.2      0.0    161.5       92    238.1    237.9      100     0.000     0.000     0.000     0.000       72        0        0        0        0        0        0     8.441      100     55.7    4.702     1.18       12        8     2005  Amityhall_TomatoGDDCRO_SandyLoam_S1_riegoIRR.PRM
  Tot(17)       31        5     2006    250.6    418.1   1511.5   381.90    252.2    242.1      8.5     68.4      0.0    171.1       90    266.6    266.7      100     0.000     0.000     0.000     0.000       72        0        0        0        0        0        0     8.474      100     55.7    4.721     1.08       12        8     2006  Amityhall_TomatoGDDCRO_SandyLoam_S1_riegoIRR.PRM
  Tot(18)       31        5     2007    168.7    430.7   1492.9   383.79    319.9    160.7      8.0     18.0      0.0    170.0       85    270.9    273.4      100     0.000     0.000     0.000     0.000       71        0        0        0        0        0        0     8.359      100     53.9    4.504     1.02       11        8     2007  Amityhall_TomatoGDDCRO_SandyLoam_S1_riegoIRR.PRM
  Tot(19)       31        5     2008    190.0    424.5   1504.3   385.60    298.1    165.9     24.1     39.4      0.0    170.2       86    266.1    263.4      100     0.000     0.000     0.000     0.000       72        0        0        0        0        0        0     8.516      100     55.7    4.744     1.09       12        8     2008  Amityhall_TomatoGDDCRO_SandyLoam_S1_riegoIRR.PRM
  Tot(20)       31        5     2009    134.3    422.6   1524.1   387.43    300.3    133.2      1.1      4.6      0.0    168.0       89    271.8    271.1      100     0.000     0.000     0.000     0.000       73        0        0        0        0        0        0     8.682      100     57.5    4.994     1.14       13        8     2009  Amityhall_TomatoGDDCRO_SandyLoam_S1_riegoIRR.PRM
  Tot(21)       31        5     2010    311.9    381.0   1519.2   389.90    137.3    305.9      6.0     66.6      0.0    160.6       86    227.7    228.7      100     0.000     0.000     0.000     0.000       72        0        0        0        0        0        0     8.653      100     55.7    4.820     1.24       12        8     2010  Amityhall_TomatoGDDCRO_SandyLoam_S1_riegoIRR.PRM
  Tot(22)       31        5     2011    425.5    387.0   1523.6   391.65    174.7    387.4     38.1    167.8      0.0    158.3       91    247.5    247.1      100     0.000     0.000     0.000     0.000       73        0        0        0        0        0        0     8.772      100     57.5    5.047     1.24       13        8     2011  Amityhall_TomatoGDDCRO_SandyLoam_S1_riegoIRR.PRM
  Tot(23)       31        5     2012    235.4    426.3   1509.8   393.85    269.3    223.4     12.0     62.0      0.0    179.1       87    260.2    260.3      100     0.000     0.000     0.000     0.000       72        0        0        0        0        0        0     8.688      100     55.7    4.840     1.10       12        8     2012  Amityhall_TomatoGDDCRO_SandyLoam_S1_riegoIRR.PRM
  Tot(24)       31        5     2013    132.0    411.2   1505.7   396.52    279.9    131.0      1.0      1.6      0.0    165.0       86    255.5    255.0      100     0.000     0.000     0.000     0.000       72        0        0        0        0        0        0     8.736      100     55.7    4.867     1.16       12        8     2013  Amityhall_TomatoGDDCRO_SandyLoam_S1_riegoIRR.PRM
  Tot(25)       31        5     2014     83.9    429.0   1504.7   398.65    343.1     83.9      0.0      0.0      0.0    169.5       85    268.6    268.6      100     0.000     0.000     0.000     0.000       72        0        0        0        0        0        0     8.757      100     55.7    4.878     1.11       12        8     2014  Amityhall_TomatoGDDCRO_SandyLoam_S1_riegoIRR.PRM
  Tot(26)       31        5     2015    137.6    419.1   1504.2   400.83    312.3    134.7      2.9     23.1      0.0    170.4       89    264.7    264.7      100     0.000     0.000     0.000     0.000       72        0        0        0        0        0        0     8.797      100     55.7    4.900     1.13       12        8     2015  Amityhall_TomatoGDDCRO_SandyLoam_S1_riegoIRR.PRM
  Tot(27)       31        5     2016    209.3    409.6   1498.1   404.21    255.5    202.9      6.4     42.2      0.0    171.6       91    256.7    258.3      100     0.000     0.000     0.000     0.000       71        0        0        0        0        0        0     8.715      100     53.9    4.696     1.10       11        8     2016  Amityhall_TomatoGDDCRO_SandyLoam_S1_riegoIRR.PRM
  Tot(28)       31        5     2017    227.6    402.2   1510.7   406.21    269.2    189.7     37.9     62.2      0.0    158.9       84    249.2    247.8      100     0.000     0.000     0.000     0.000       72        0        0        0        0        0        0     8.886      100     55.7    4.950     1.21       12        8     2017  Amityhall_TomatoGDDCRO_SandyLoam_S1_riegoIRR.PRM
  Tot(29)       31        5     2018     98.2    416.2   1520.5   408.21    320.6     97.7      0.5      4.3      0.0    163.3       86    261.9    261.9      100     0.000     0.000     0.000     0.000       73        0        0        0        0        0        0     9.055      100     57.5    5.209     1.23       13        8     2018  Amityhall_TomatoGDDCRO_SandyLoam_S1_riegoIRR.PRM
