AquaCrop 6.0 (March 2017) - Output created on (date) : 3/5/2021   at (time) : 3:58:24 PM

    RunNr     Day1   Month1    Year1     Rain      ETo       GD     CO2      Irri   Infilt   Runoff    Drain   Upflow        E     E/Ex       Tr      TrW   Tr/Trx    SaltIn   SaltOut    SaltUp  SaltProf     Cycle   SaltStr  FertStr  WeedStr  TempStr   ExpStr   StoStr  BioMass  Brelative   HI     Yield     WPet     DayN   MonthN    YearN
                                           mm       mm    °C.day    ppm        mm       mm       mm       mm       mm       mm        %       mm       mm        %    ton/ha    ton/ha    ton/ha    ton/ha      days       %        %        %        %        %        %    ton/ha        %       %    ton/ha    kg/m3
   Tot(1)       31       10     1990    193.9    490.9   1735.7   355.00    297.8    193.7      0.2     27.0      0.0    215.0       89    278.9    275.2      100     0.000     0.000     0.000     0.000      100        0        0        0        0        0        0     8.170      100     25.0    2.042     0.41       13        2     1991  Amityhall_GroundnutGDDCRO_SandyLoam_S2_riegoIRR.PRM
   Tot(2)       31       10     1991    102.3    496.9   1733.8   356.03    352.1    100.6      1.7     20.0      0.0    195.6       74    266.5    266.3      100     0.000     0.000     0.000     0.000      100        0        0        0        0        0        0     8.238      100     25.0    2.059     0.45       13        2     1992  Amityhall_GroundnutGDDCRO_SandyLoam_S2_riegoIRR.PRM
   Tot(3)       31       10     1992    103.8    516.9   1723.7   356.27    347.3    102.5      1.3      0.0      0.0    205.5       74    273.8    273.8      100     0.000     0.000     0.000     0.000       98        0        0        0        0        0        0     8.057      100     25.0    2.014     0.42       11        2     1993  Amityhall_GroundnutGDDCRO_SandyLoam_S2_riegoIRR.PRM
   Tot(4)       31       10     1993    168.5    503.3   1730.5   357.47    306.6    162.3      6.2     32.3      0.0    197.2       74    268.2    267.7      100     0.000     0.000     0.000     0.000       99        0        0        0        0        0        0     8.157      100     25.0    2.039     0.44       12        2     1994  Amityhall_GroundnutGDDCRO_SandyLoam_S2_riegoIRR.PRM
   Tot(5)       31       10     1994    161.9    499.9   1728.9   359.82    340.1    156.7      5.2     39.2      0.0    212.7       82    274.0    274.3      100     0.000     0.000     0.000     0.000       99        0        0        0        0        0        0     8.211      100     25.0    2.053     0.42       12        2     1995  Amityhall_GroundnutGDDCRO_SandyLoam_S2_riegoIRR.PRM
   Tot(6)       31       10     1995    106.4    510.0   1726.9   361.72    352.6    106.4      0.0      0.0      0.0    210.8       80    277.7    277.9      100     0.000     0.000     0.000     0.000       98        0        0        0        0        0        0     8.163      100     25.0    2.041     0.42       11        2     1996  Amityhall_GroundnutGDDCRO_SandyLoam_S2_riegoIRR.PRM
   Tot(7)       31       10     1996    190.5    515.1   1749.4   363.17    337.7    184.8      5.7     64.8      0.0    207.3       79    282.6    286.5      100     0.000     0.000     0.000     0.000      101        0        0        0        0        0        0     8.444      100     25.0    2.111     0.43       15        2     1997  Amityhall_GroundnutGDDCRO_SandyLoam_S2_riegoIRR.PRM
   Tot(8)       31       10     1997    151.6    485.6   1716.1   365.22    289.6    150.5      1.1      0.0      0.0    210.4       81    259.2    255.3      100     0.000     0.000     0.000     0.000       97        0        0        0        0        0        0     8.151      100     25.0    2.038     0.43       10        2     1998  Amityhall_GroundnutGDDCRO_SandyLoam_S2_riegoIRR.PRM
   Tot(9)       31       10     1998    275.0    485.7   1745.3   367.54    271.0    247.2     27.8     71.1      0.0    218.6       86    259.8    263.7      100     0.000     0.000     0.000     0.000       99        0        0        0        0        0        0     8.405      100     25.0    2.101     0.44       13        2     1999  Amityhall_GroundnutGDDCRO_SandyLoam_S2_riegoIRR.PRM
  Tot(10)       31       10     1999    189.8    504.4   1738.6   368.97    324.9    186.1      3.7     61.2      0.0    206.5       80    275.3    275.3      100     0.000     0.000     0.000     0.000      105        0        0        0        0        0        0     8.928      100     25.0    2.232     0.47       19        2     2000  Amityhall_GroundnutGDDCRO_SandyLoam_S2_riegoIRR.PRM
  Tot(11)       31       10     2000    323.5    476.8   1732.7   370.35    222.4    301.6     21.9    101.5      0.0    201.8       78    250.0    246.3      100     0.000     0.000     0.000     0.000      102        0        0        0        0        0        0     8.726      100     25.0    2.182     0.48       15        2     2001  Amityhall_GroundnutGDDCRO_SandyLoam_S2_riegoIRR.PRM
  Tot(12)       31       10     2001    317.4    465.9   1737.2   372.21    235.8    295.8     21.6    110.6      0.0    200.4       82    250.1    250.2      100     0.000     0.000     0.000     0.000      100        0        0        0        0        0        0     8.477      100     25.0    2.119     0.47       13        2     2002  Amityhall_GroundnutGDDCRO_SandyLoam_S2_riegoIRR.PRM
  Tot(13)       31       10     2002    186.4    476.5   1720.3   374.54    253.4    180.9      5.5      9.4      0.0    201.9       79    252.5    252.4      100     0.000     0.000     0.000     0.000       97        0        0        0        0        0        0     8.325      100     25.0    2.081     0.46       10        2     2003  Amityhall_GroundnutGDDCRO_SandyLoam_S2_riegoIRR.PRM
  Tot(14)       31       10     2003    224.4    504.3   1718.7   376.66    265.2    220.4      4.0     25.6      0.0    218.5       82    270.7    270.2      100     0.000     0.000     0.000     0.000       98        0        0        0        0        0        0     8.499      100     25.0    2.125     0.43       11        2     2004  Amityhall_GroundnutGDDCRO_SandyLoam_S2_riegoIRR.PRM
  Tot(15)       31       10     2004    125.6    545.8   1726.8   378.66    363.4    125.4      0.2      0.0      0.0    235.3       79    283.0    283.5      100     0.000     0.000     0.000     0.000      101        0        0        0        0        0        0     8.832      100     25.0    2.208     0.43       14        2     2005  Amityhall_GroundnutGDDCRO_SandyLoam_S2_riegoIRR.PRM
  Tot(16)       31       10     2005    231.6    469.7   1739.5   380.85    192.0    228.4      3.2      2.4      0.0    198.0       78    245.9    249.6      100     0.000     0.000     0.000     0.000      100        0        0        0        0        0        0     8.756      100     25.0    2.189     0.50       14        2     2006  Amityhall_GroundnutGDDCRO_SandyLoam_S2_riegoIRR.PRM
  Tot(17)       31       10     2006    158.9    494.0   1710.2   382.85    320.3    154.4      4.5     28.8      0.0    203.9       80    269.4    265.9      100     0.000     0.000     0.000     0.000       96        0        0        0        0        0        0     8.244      100     25.0    2.061     0.44        8        2     2007  Amityhall_GroundnutGDDCRO_SandyLoam_S2_riegoIRR.PRM
  Tot(18)       31       10     2007    296.3    482.7   1746.1   384.70    294.6    256.9     39.4    121.2      0.0    202.1       81    260.4    263.9      100     0.000     0.000     0.000     0.000      100        0        0        0        0        0        0     8.791      100     25.0    2.198     0.48       14        2     2008  Amityhall_GroundnutGDDCRO_SandyLoam_S2_riegoIRR.PRM
  Tot(19)       31       10     2008    174.1    487.4   1735.1   386.51    328.7    167.2      6.9     61.7      0.0    193.8       79    270.0    266.4      100     0.000     0.000     0.000     0.000      101        0        0        0        0        0        0     8.908      100     25.0    2.227     0.48       14        2     2009  Amityhall_GroundnutGDDCRO_SandyLoam_S2_riegoIRR.PRM
  Tot(20)       31       10     2009    163.6    475.3   1707.3   388.66    321.9    148.9     14.7     53.5      0.0    199.6       77    247.6    247.9      100     0.000     0.000     0.000     0.000       97        0        0        0        0        0        0     8.580      100     25.0    2.145     0.48       10        2     2010  Amityhall_GroundnutGDDCRO_SandyLoam_S2_riegoIRR.PRM
  Tot(21)       31       10     2010    158.5    486.6   1747.6   390.77    284.8    155.0      3.5     19.4      0.0    196.0       76    256.1    259.5      100     0.000     0.000     0.000     0.000      104        0        0        0        0        0        0     9.241      100     25.0    2.310     0.51       18        2     2011  Amityhall_GroundnutGDDCRO_SandyLoam_S2_riegoIRR.PRM
  Tot(22)       31       10     2011     66.4    501.6   1721.4   392.75    381.1     66.4      0.0      0.0      0.0    213.0       79    264.6    261.4      100     0.000     0.000     0.000     0.000       98        0        0        0        0        0        0     8.737      100     25.0    2.184     0.46       11        2     2012  Amityhall_GroundnutGDDCRO_SandyLoam_S2_riegoIRR.PRM
  Tot(23)       31       10     2012     90.4    489.4   1724.0   395.19    339.4     89.6      0.8      2.4      0.0    192.8       75    263.3    262.7      100     0.000     0.000     0.000     0.000       98        0        0        0        0        0        0     8.719      100     25.0    2.180     0.48       11        2     2013  Amityhall_GroundnutGDDCRO_SandyLoam_S2_riegoIRR.PRM
  Tot(24)       31       10     2013    122.3    477.4   1719.0   397.58    321.3    122.2      0.1      5.9      0.0    212.6       84    254.6    254.7      100     0.000     0.000     0.000     0.000       96        0        0        0        0        0        0     8.623      100     25.0    2.156     0.46        9        2     2014  Amityhall_GroundnutGDDCRO_SandyLoam_S2_riegoIRR.PRM
  Tot(25)       31       10     2014    160.9    467.7   1719.9   399.74    265.3    159.9      1.0      2.2      0.0    206.3       83    246.9    247.6      100     0.000     0.000     0.000     0.000       97        0        0        0        0        0        0     8.771      100     25.0    2.193     0.48       10        2     2015  Amityhall_GroundnutGDDCRO_SandyLoam_S2_riegoIRR.PRM
  Tot(26)       31       10     2015    193.2    454.3   1719.8   402.52    232.3    192.9      0.3      5.8      0.0    207.4       86    242.1    241.9      100     0.000     0.000     0.000     0.000       96        0        0        0        0        0        0     8.728      100     25.0    2.182     0.49        9        2     2016  Amityhall_GroundnutGDDCRO_SandyLoam_S2_riegoIRR.PRM
  Tot(27)       31       10     2016    170.3    467.6   1715.0   405.21    282.0    168.9      1.4     28.7      0.0    198.0       82    253.7    253.0      100     0.000     0.000     0.000     0.000       97        0        0        0        0        0        0     8.852      100     25.0    2.213     0.49       10        2     2017  Amityhall_GroundnutGDDCRO_SandyLoam_S2_riegoIRR.PRM
  Tot(28)       31       10     2017    435.1    411.7   1735.3   407.21    102.5    420.0     15.1    145.9      0.0    185.3       86    221.2    221.7      100     0.000     0.000     0.000     0.000       99        0        0        0        0        0        0     9.123      100     25.0    2.281     0.56       12        2     2018  Amityhall_GroundnutGDDCRO_SandyLoam_S2_riegoIRR.PRM
  Tot(29)       31       10     2018     75.0    473.2   1716.0   409.21    342.3     74.9      0.1      0.0      0.0    198.9       79    248.7    249.1      100     0.000     0.000     0.000     0.000       97        0        0        0        0        0        0     8.921      100     25.0    2.230     0.50       10        2     2019  Amityhall_GroundnutGDDCRO_SandyLoam_S2_riegoIRR.PRM
