AquaCrop 6.0 (March 2017) - Output created on (date) : 3/5/2021   at (time) : 3:50:14 PM

    RunNr     Day1   Month1    Year1     Rain      ETo       GD     CO2      Irri   Infilt   Runoff    Drain   Upflow        E     E/Ex       Tr      TrW   Tr/Trx    SaltIn   SaltOut    SaltUp  SaltProf     Cycle   SaltStr  FertStr  WeedStr  TempStr   ExpStr   StoStr  BioMass  Brelative   HI     Yield     WPet     DayN   MonthN    YearN
                                           mm       mm    °C.day    ppm        mm       mm       mm       mm       mm       mm        %       mm       mm        %    ton/ha    ton/ha    ton/ha    ton/ha      days       %        %        %        %        %        %    ton/ha        %       %    ton/ha    kg/m3
   Tot(1)       31        5     1990    120.0    588.8   1685.4   354.39      0.0    119.3      0.7      0.0      0.0    145.5       44    193.3    193.1       68     0.000     0.000     0.000     0.000       91        0        0        0        0       43       28     4.485       62     26.5    1.188     0.35        4        9     1990  Amityhall_GroundnutGDDCRO_Clay_S1_rainfed.PRM
   Tot(2)       31        5     1991     66.2    573.6   1678.6   355.61      0.0     66.2      0.0      0.0      0.0    102.6       31    180.6    180.6       67     0.000     0.000     0.000     0.000       91        0        0        0        0       44       25     4.381       60     26.5    1.161     0.41        4        9     1991  Amityhall_GroundnutGDDCRO_Clay_S1_rainfed.PRM
   Tot(3)       31        5     1992     99.0    586.5   1689.8   356.45      0.0     99.0      0.0      0.0      0.0    123.2       37    192.0    191.8       67     0.000     0.000     0.000     0.000       91        0        0        0        0       44       25     4.538       62     26.5    1.202     0.38        4        9     1992  Amityhall_GroundnutGDDCRO_Clay_S1_rainfed.PRM
   Tot(4)       31        5     1993    138.5    570.5   1694.1   356.10      0.0    133.4      5.1     13.9      0.0    140.9       44    194.1    194.1       69     0.000     0.000     0.000     0.000       92        0        0        0        0       41       24     4.662       63     26.5    1.235     0.37        5        9     1993  Amityhall_GroundnutGDDCRO_Clay_S1_rainfed.PRM
   Tot(5)       31        5     1994     93.9    626.8   1675.2   358.83      0.0     93.9      0.0      0.0      0.0    122.5       33    187.8    187.8       65     0.000     0.000     0.000     0.000       90        0        0        0        0       48       27     4.146       57     26.5    1.099     0.35        3        9     1994  Amityhall_GroundnutGDDCRO_Clay_S1_rainfed.PRM
   Tot(6)       31        5     1995    201.4    563.3   1662.7   360.82      0.0    201.2      0.2      2.0      0.0    166.5       53    246.9    246.0       86     0.000     0.000     0.000     0.000       89        0        0        0        0       35        9     6.184       86     26.5    1.639     0.40        2        9     1995  Amityhall_GroundnutGDDCRO_Clay_S1_rainfed.PRM
   Tot(7)       31        5     1996    135.8    582.1   1668.9   362.61      0.0    135.8      0.0      0.1      0.0    149.4       45    206.0    206.6       72     0.000     0.000     0.000     0.000       90        0        0        0        0       41       19     5.146       70     26.5    1.364     0.38        3        9     1996  Amityhall_GroundnutGDDCRO_Clay_S1_rainfed.PRM
   Tot(8)       31        5     1997    222.2    542.4   1697.1   363.73      0.0    195.8     26.4     38.5      0.0    160.6       54    209.8    209.6       75     0.000     0.000     0.000     0.000       92        0        0        0        0       40       23     5.390       72     26.5    1.428     0.39        5        9     1997  Amityhall_GroundnutGDDCRO_Clay_S1_rainfed.PRM
   Tot(9)       31        5     1998    213.9    558.3   1648.5   366.70      0.0    208.6      5.3      0.0      0.0    159.5       51    245.5    243.1       87     0.000     0.000     0.000     0.000       88        0        0        0        0        0       10     6.225       87     26.5    1.650     0.41       31        8     1998  Amityhall_GroundnutGDDCRO_Clay_S1_rainfed.PRM
  Tot(10)       31        5     1999    229.9    558.2   1682.6   368.38      0.0    226.7      3.2      7.8      0.0    190.0       62    241.8    244.2       83     0.000     0.000     0.000     0.000       91        0        0        0        0        6       14     6.287       83     26.5    1.666     0.39        4        9     1999  Amityhall_GroundnutGDDCRO_Clay_S1_rainfed.PRM
  Tot(11)       31        5     2000    263.7    572.7   1693.2   369.55      0.0    249.2     14.5     15.5      0.0    152.7       49    263.1    260.3       88     0.000     0.000     0.000     0.000       92        0        0        0        0       14        7     6.798       89     26.5    1.801     0.43        5        9     2000  Amityhall_GroundnutGDDCRO_Clay_S1_rainfed.PRM
  Tot(12)       31        5     2001    101.9    587.4   1670.7   371.14      0.0    101.8      0.1      1.6      0.0    116.4       34    199.8    202.6       70     0.000     0.000     0.000     0.000       90        0        0        0        0       43       21     5.017       67     26.5    1.329     0.42        3        9     2001  Amityhall_GroundnutGDDCRO_Clay_S1_rainfed.PRM
  Tot(13)       31        5     2002    200.9    544.1   1687.3   373.28      0.0    180.5     20.4     42.7      0.0    158.5       52    183.9    184.2       68     0.000     0.000     0.000     0.000       92        0        0        0        0       42       31     4.841       63     26.5    1.283     0.37        5        9     2002  Amityhall_GroundnutGDDCRO_Clay_S1_rainfed.PRM
  Tot(14)       31        5     2003    246.4    568.0   1686.7   375.80      0.0    241.8      4.6      4.0      0.0    197.9       63    247.9    247.0       84     0.000     0.000     0.000     0.000       91        0        0        0        0       10       16     6.510       85     26.5    1.725     0.39        4        9     2003  Amityhall_GroundnutGDDCRO_Clay_S1_rainfed.PRM
  Tot(15)       31        5     2004    150.6    590.3   1676.2   377.52      0.0    147.7      2.9      0.0      0.0    131.8       40    231.7    232.3       78     0.000     0.000     0.000     0.000       90        0        0        0        0       37       15     5.826       77     26.5    1.544     0.42        3        9     2004  Amityhall_GroundnutGDDCRO_Clay_S1_rainfed.PRM
  Tot(16)       31        5     2005    637.8    496.2   1700.3   379.80      0.0    434.8    203.0    165.1      0.0    233.8       88    184.9    182.0       70     0.000     0.000     0.000     0.000       92        0        0        0        0        0       41     5.357       69     25.9    1.390     0.33        4        9     2005  Amityhall_GroundnutGDDCRO_Clay_S1_rainfed.PRM
  Tot(17)       31        5     2006    297.1    541.8   1676.0   381.90      0.0    272.2     24.9     54.1      0.0    182.3       62    245.8    248.2       86     0.000     0.000     0.000     0.000       90        0        0        0        0        9       16     6.582       86     26.5    1.744     0.41        3        9     2006  Amityhall_GroundnutGDDCRO_Clay_S1_rainfed.PRM
  Tot(18)       31        5     2007    242.4    550.4   1675.7   383.79      0.0    232.4     10.0      2.3      0.0    147.9       48    267.4    264.9       96     0.000     0.000     0.000     0.000       90        0        0        0        0       24        5     7.345       95     26.5    1.947     0.47        3        9     2007  Amityhall_GroundnutGDDCRO_Clay_S1_rainfed.PRM
  Tot(19)       31        5     2008    496.8    542.5   1685.6   385.60      0.0    329.7    167.1      3.7      0.0    155.5       52    277.9    277.9       99     0.000     0.000     0.000     0.000       91        0        0        0        0        0        2     7.794      100     26.5    2.065     0.48        4        9     2008  Amityhall_GroundnutGDDCRO_Clay_S1_rainfed.PRM
  Tot(20)       31        5     2009    210.1    549.5   1684.5   387.43      0.0    198.6     11.5      0.0      0.0    178.1       61    234.2    237.2       80     0.000     0.000     0.000     0.000       91        0        0        0        0       22       19     6.225       79     26.5    1.650     0.40        4        9     2009  Amityhall_GroundnutGDDCRO_Clay_S1_rainfed.PRM
  Tot(21)       31        5     2010    393.5    496.5   1684.5   389.90      0.0    359.1     34.4    111.6      0.0    201.7       74     36.2     36.7       14     0.000     0.000     0.000     0.000       91        0        0        0        0        0       68     1.091       14     25.0    0.273     0.11        3        9     2010  Amityhall_GroundnutGDDCRO_Clay_S1_rainfed.PRM
  Tot(22)       31        5     2011    528.1    509.6   1702.4   391.65      0.0    430.2     97.9    132.1      0.0    204.0       75     96.9     96.2       36     0.000     0.000     0.000     0.000       92        0        0        0        0        0       52     2.818       35     25.7    0.725     0.24        5        9     2011  Amityhall_GroundnutGDDCRO_Clay_S1_rainfed.PRM
  Tot(23)       31        5     2012    305.7    549.4   1672.1   393.85      0.0    287.8     17.9      2.8      0.0    184.9       60    274.8    271.1       98     0.000     0.000     0.000     0.000       90        0        0        0        0        8        8     7.750       98     26.5    2.054     0.45        3        9     2012  Amityhall_GroundnutGDDCRO_Clay_S1_rainfed.PRM
  Tot(24)       31        5     2013    227.6    531.3   1684.4   396.52      0.0    225.4      2.2      4.7      0.0    159.6       55    260.3    262.4       94     0.000     0.000     0.000     0.000       91        0        0        0        0        4        6     7.548       94     26.5    2.000     0.48        4        9     2013  Amityhall_GroundnutGDDCRO_Clay_S1_rainfed.PRM
  Tot(25)       31        5     2014    183.8    548.8   1671.5   398.65      0.0    172.1     11.7      1.1      0.0    131.5       43    223.9    222.7       81     0.000     0.000     0.000     0.000       90        0        0        0        0       41       13     6.229       79     26.5    1.651     0.46        3        9     2014  Amityhall_GroundnutGDDCRO_Clay_S1_rainfed.PRM
  Tot(26)       31        5     2015    167.7    551.2   1672.0   400.83      0.0    159.0      8.7     21.9      0.0    159.1       52    192.7    196.0       70     0.000     0.000     0.000     0.000       90        0        0        0        0       40       26     5.305       67     26.5    1.406     0.40        3        9     2015  Amityhall_GroundnutGDDCRO_Clay_S1_rainfed.PRM
  Tot(27)       31        5     2016    282.2    530.0   1667.7   404.21      0.0    269.6     12.6     25.3      0.0    175.6       60    259.9    255.7       95     0.000     0.000     0.000     0.000       89        0        0        0        0        8        7     7.554       95     26.5    2.002     0.46        2        9     2016  Amityhall_GroundnutGDDCRO_Clay_S1_rainfed.PRM
  Tot(28)       31        5     2017    271.4    520.1   1676.3   406.21      0.0    212.9     58.5     16.9      0.0    177.5       63    229.7    233.2       85     0.000     0.000     0.000     0.000       90        0        0        0        0       11       18     6.809       85     26.5    1.804     0.44        3        9     2017  Amityhall_GroundnutGDDCRO_Clay_S1_rainfed.PRM
  Tot(29)       31        5     2018    131.9    546.6   1682.8   408.21      0.0    131.4      0.5      0.0      0.0    157.4       52    189.6    190.3       70     0.000     0.000     0.000     0.000       91        0        0        0        0       40       24     5.365       66     26.5    1.422     0.41        4        9     2018  Amityhall_GroundnutGDDCRO_Clay_S1_rainfed.PRM
