AquaCrop 6.0 (March 2017) - Output created on (date) : 3/5/2021   at (time) : 3:55:42 PM

    RunNr     Day1   Month1    Year1     Rain      ETo       GD     CO2      Irri   Infilt   Runoff    Drain   Upflow        E     E/Ex       Tr      TrW   Tr/Trx    SaltIn   SaltOut    SaltUp  SaltProf     Cycle   SaltStr  FertStr  WeedStr  TempStr   ExpStr   StoStr  BioMass  Brelative   HI     Yield     WPet     DayN   MonthN    YearN
                                           mm       mm    °C.day    ppm        mm       mm       mm       mm       mm       mm        %       mm       mm        %    ton/ha    ton/ha    ton/ha    ton/ha      days       %        %        %        %        %        %    ton/ha        %       %    ton/ha    kg/m3
   Tot(1)       31        5     1990    120.0    588.8   1685.4   354.39    405.6    118.9      1.1     14.7      0.0    213.9       68    312.8    308.0      100     0.000     0.000     0.000     0.000       91        0        0        0        0        0        0     7.278      100     25.0    1.819     0.35        4        9     1990  Amityhall_GroundnutGDDCRO_Sand_S1_riegoIRR.PRM
   Tot(2)       31        5     1991     66.2    573.6   1678.6   355.61    430.8     66.2      0.0      0.0      0.0    213.0       68    301.0    301.2      100     0.000     0.000     0.000     0.000       91        0        0        0        0        0        0     7.279      100     25.0    1.820     0.35        4        9     1991  Amityhall_GroundnutGDDCRO_Sand_S1_riegoIRR.PRM
   Tot(3)       31        5     1992     99.0    586.5   1689.8   356.45    415.1     98.9      0.1      0.0      0.0    216.4       69    312.0    313.2      100     0.000     0.000     0.000     0.000       91        0        0        0        0        0        0     7.331      100     25.0    1.833     0.35        4        9     1992  Amityhall_GroundnutGDDCRO_Sand_S1_riegoIRR.PRM
   Tot(4)       31        5     1993    138.5    570.5   1694.1   356.10    398.0    137.7      0.8     14.6      0.0    231.4       76    306.8    305.5      100     0.000     0.000     0.000     0.000       92        0        0        0        0        0        0     7.395      100     25.0    1.849     0.34        5        9     1993  Amityhall_GroundnutGDDCRO_Sand_S1_riegoIRR.PRM
   Tot(5)       31        5     1994     93.9    626.8   1675.2   358.83    438.0     93.9      0.0      0.0      0.0    227.6       65    321.3    321.3      100     0.000     0.000     0.000     0.000       90        0        0        0        0        0        0     7.276      100     25.0    1.819     0.33        3        9     1994  Amityhall_GroundnutGDDCRO_Sand_S1_riegoIRR.PRM
   Tot(6)       31        5     1995    201.4    563.3   1662.7   360.82    312.6    201.2      0.2      0.0      0.0    240.7       77    289.9    289.4      100     0.000     0.000     0.000     0.000       89        0        0        0        0        0        0     7.209      100     25.0    1.802     0.34        2        9     1995  Amityhall_GroundnutGDDCRO_Sand_S1_riegoIRR.PRM
   Tot(7)       31        5     1996    135.8    582.1   1668.9   362.61    371.0    135.8      0.0      0.0      0.0    228.7       70    295.0    295.3      100     0.000     0.000     0.000     0.000       90        0        0        0        0        0        0     7.338      100     25.0    1.835     0.35        3        9     1996  Amityhall_GroundnutGDDCRO_Sand_S1_riegoIRR.PRM
   Tot(8)       31        5     1997    222.2    542.4   1697.1   363.73    339.2    211.7     10.5     53.8      0.0    225.7       78    288.7    289.5      100     0.000     0.000     0.000     0.000       92        0        0        0        0        0        0     7.536      100     25.0    1.884     0.37        5        9     1997  Amityhall_GroundnutGDDCRO_Sand_S1_riegoIRR.PRM
   Tot(9)       31        5     1998    213.9    558.3   1648.5   366.70    310.8    206.6      7.3     26.5      0.0    224.0       71    282.8    281.4      100     0.000     0.000     0.000     0.000       88        0        0        0        0        0        0     7.163      100     25.0    1.791     0.35       31        8     1998  Amityhall_GroundnutGDDCRO_Sand_S1_riegoIRR.PRM
  Tot(10)       31        5     1999    229.9    558.2   1682.6   368.38    279.1    228.8      1.1      5.0      0.0    230.0       75    290.1    291.3      100     0.000     0.000     0.000     0.000       91        0        0        0        0        0        0     7.532      100     25.0    1.883     0.36        4        9     1999  Amityhall_GroundnutGDDCRO_Sand_S1_riegoIRR.PRM
  Tot(11)       31        5     2000    263.7    572.7   1693.2   369.55    318.0    254.4      9.3     40.9      0.0    233.8       74    298.6    299.0      100     0.000     0.000     0.000     0.000       92        0        0        0        0        0        0     7.671      100     25.0    1.918     0.36        5        9     2000  Amityhall_GroundnutGDDCRO_Sand_S1_riegoIRR.PRM
  Tot(12)       31        5     2001    101.9    587.4   1670.7   371.14    397.0    101.9      0.0      0.0      0.0    216.8       66    299.2    298.5      100     0.000     0.000     0.000     0.000       90        0        0        0        0        0        0     7.452      100     25.0    1.863     0.36        3        9     2001  Amityhall_GroundnutGDDCRO_Sand_S1_riegoIRR.PRM
  Tot(13)       31        5     2002    200.9    544.1   1687.3   373.28    363.7    195.5      5.4     59.2      0.0    226.5       78    290.7    291.0      100     0.000     0.000     0.000     0.000       92        0        0        0        0        0        0     7.663      100     25.0    1.916     0.37        5        9     2002  Amityhall_GroundnutGDDCRO_Sand_S1_riegoIRR.PRM
  Tot(14)       31        5     2003    246.4    568.0   1686.7   375.80    300.2    239.1      7.3     23.2      0.0    238.6       76    294.4    294.2      100     0.000     0.000     0.000     0.000       91        0        0        0        0        0        0     7.680      100     25.0    1.920     0.36        4        9     2003  Amityhall_GroundnutGDDCRO_Sand_S1_riegoIRR.PRM
  Tot(15)       31        5     2004    150.6    590.3   1676.2   377.52    371.8    146.4      4.2     10.0      0.0    220.2       68    305.0    304.8      100     0.000     0.000     0.000     0.000       90        0        0        0        0        0        0     7.609      100     25.0    1.902     0.36        3        9     2004  Amityhall_GroundnutGDDCRO_Sand_S1_riegoIRR.PRM
  Tot(16)       31        5     2005    637.8    496.2   1700.3   379.80    189.1    528.7    109.1    259.6      0.0    211.9       80    263.6    264.4      100     0.000     0.000     0.000     0.000       92        0        0        0        0        0        0     7.774      100     25.0    1.944     0.41        4        9     2005  Amityhall_GroundnutGDDCRO_Sand_S1_riegoIRR.PRM
  Tot(17)       31        5     2006    297.1    541.8   1676.0   381.90    287.9    288.7      8.4     69.9      0.0    237.2       81    286.6    285.9      100     0.000     0.000     0.000     0.000       90        0        0        0        0        0        0     7.692      100     25.0    1.923     0.37        3        9     2006  Amityhall_GroundnutGDDCRO_Sand_S1_riegoIRR.PRM
  Tot(18)       31        5     2007    242.4    550.4   1675.7   383.79    288.9    234.4      8.0     40.1      0.0    218.1       71    282.2    282.6      100     0.000     0.000     0.000     0.000       90        0        0        0        0        0        0     7.724      100     25.0    1.931     0.39        3        9     2007  Amityhall_GroundnutGDDCRO_Sand_S1_riegoIRR.PRM
  Tot(19)       31        5     2008    496.8    542.5   1685.6   385.60    279.0    382.7    114.1    160.8      0.0    228.2       76    279.3    279.6      100     0.000     0.000     0.000     0.000       91        0        0        0        0        0        0     7.831      100     25.0    1.958     0.39        4        9     2008  Amityhall_GroundnutGDDCRO_Sand_S1_riegoIRR.PRM
  Tot(20)       31        5     2009    210.1    549.5   1684.5   387.43    314.3    201.4      8.7     18.7      0.0    218.9       75    294.9    294.0      100     0.000     0.000     0.000     0.000       91        0        0        0        0        0        0     7.830      100     25.0    1.957     0.38        4        9     2009  Amityhall_GroundnutGDDCRO_Sand_S1_riegoIRR.PRM
  Tot(21)       31        5     2010    393.5    496.5   1684.5   389.90    141.3    387.6      5.9     67.1      0.0    222.7       81    255.6    256.2      100     0.000     0.000     0.000     0.000       91        0        0        0        0        0        0     7.853      100     25.0    1.963     0.41        3        9     2010  Amityhall_GroundnutGDDCRO_Sand_S1_riegoIRR.PRM
  Tot(22)       31        5     2011    528.1    509.6   1702.4   391.65    175.5    485.9     42.2    179.4      0.0    227.1       84    272.1    272.3      100     0.000     0.000     0.000     0.000       92        0        0        0        0        0        0     8.032      100     25.0    2.008     0.40        5        9     2011  Amityhall_GroundnutGDDCRO_Sand_S1_riegoIRR.PRM
  Tot(23)       31        5     2012    305.7    549.4   1672.1   393.85    250.5    293.1     12.6     64.3      0.0    217.0       71    279.2    278.5      100     0.000     0.000     0.000     0.000       90        0        0        0        0        0        0     7.874      100     25.0    1.968     0.40        3        9     2012  Amityhall_GroundnutGDDCRO_Sand_S1_riegoIRR.PRM
  Tot(24)       31        5     2013    227.6    531.3   1684.4   396.52    257.2    224.9      2.7      4.7      0.0    218.0       75    276.5    276.9      100     0.000     0.000     0.000     0.000       91        0        0        0        0        0        0     8.030      100     25.0    2.007     0.41        4        9     2013  Amityhall_GroundnutGDDCRO_Sand_S1_riegoIRR.PRM
  Tot(25)       31        5     2014    183.8    548.8   1671.5   398.65    337.7    174.6      9.2     22.5      0.0    217.6       72    284.7    284.8      100     0.000     0.000     0.000     0.000       90        0        0        0        0        0        0     7.927      100     25.0    1.982     0.39        3        9     2014  Amityhall_GroundnutGDDCRO_Sand_S1_riegoIRR.PRM
  Tot(26)       31        5     2015    167.7    551.2   1672.0   400.83    368.8    164.6      3.1     24.1      0.0    234.4       80    292.0    291.9      100     0.000     0.000     0.000     0.000       90        0        0        0        0        0        0     7.961      100     25.0    1.990     0.38        3        9     2015  Amityhall_GroundnutGDDCRO_Sand_S1_riegoIRR.PRM
  Tot(27)       31        5     2016    282.2    530.0   1667.7   404.21    263.8    275.4      6.8     43.9      0.0    233.0       80    273.3    273.0      100     0.000     0.000     0.000     0.000       89        0        0        0        0        0        0     7.930      100     25.0    1.982     0.39        2        9     2016  Amityhall_GroundnutGDDCRO_Sand_S1_riegoIRR.PRM
  Tot(28)       31        5     2017    271.4    520.1   1676.3   406.21    285.1    233.7     37.7     60.8      0.0    204.3       72    270.8    271.1      100     0.000     0.000     0.000     0.000       90        0        0        0        0        0        0     8.047      100     25.0    2.012     0.42        3        9     2017  Amityhall_GroundnutGDDCRO_Sand_S1_riegoIRR.PRM
  Tot(29)       31        5     2018    131.9    546.6   1682.8   408.21    359.2    131.5      0.4      3.5      0.0    214.4       74    290.0    290.2      100     0.000     0.000     0.000     0.000       91        0        0        0        0        0        0     8.155      100     25.0    2.039     0.40        4        9     2018  Amityhall_GroundnutGDDCRO_Sand_S1_riegoIRR.PRM
