AquaCrop 6.0 (March 2017) - Output created on (date) : 3/5/2021   at (time) : 4:05:46 PM

    RunNr     Day1   Month1    Year1     Rain      ETo       GD     CO2      Irri   Infilt   Runoff    Drain   Upflow        E     E/Ex       Tr      TrW   Tr/Trx    SaltIn   SaltOut    SaltUp  SaltProf     Cycle   SaltStr  FertStr  WeedStr  TempStr   ExpStr   StoStr  BioMass  Brelative   HI     Yield     WPet     DayN   MonthN    YearN
                                           mm       mm    °C.day    ppm        mm       mm       mm       mm       mm       mm        %       mm       mm        %    ton/ha    ton/ha    ton/ha    ton/ha      days       %        %        %        %        %        %    ton/ha        %       %    ton/ha    kg/m3
   Tot(1)        1       10     1990    266.7    480.7   1295.0   355.00    227.0    265.5      1.2     33.2      0.0    108.2       74    367.9    367.9      100     0.000     0.000     0.000     0.000      101        0        0        0        0        0        0    16.361      100     53.7    8.783     1.85       15        1     1991  Amityhall_SweetPotatoGDDCRO_Sand_S2_riegoIRR.PRM
   Tot(2)        1       10     1991    133.4    514.5   1296.8   356.03    379.0    131.7      1.7     21.1      0.0    114.9       72    391.4    391.4      100     0.000     0.000     0.000     0.000      102        0        0        0        0        0        0    16.341      100     53.8    8.793     1.74       17        1     1992  Amityhall_SweetPotatoGDDCRO_Sand_S2_riegoIRR.PRM
   Tot(3)        1       10     1992     75.0    523.1   1294.1   356.27    423.2     75.0      0.0      0.0      0.0    103.1       67    410.0    404.8      100     0.000     0.000     0.000     0.000       99        0        0        0        0        0        0    15.912      100     53.7    8.543     1.66       12        1     1993  Amityhall_SweetPotatoGDDCRO_Sand_S2_riegoIRR.PRM
   Tot(4)        1       10     1993    191.1    507.4   1295.5   357.47    345.1    184.9      6.2     37.2      0.0    114.8       73    387.1    392.2      100     0.000     0.000     0.000     0.000      100        0        0        0        0        0        0    16.112      100     53.7    8.658     1.73       15        1     1994  Amityhall_SweetPotatoGDDCRO_Sand_S2_riegoIRR.PRM
   Tot(5)        1       10     1994    189.2    512.7   1299.0   359.82    350.0    183.9      5.3     42.2      0.0    112.5       72    394.3    394.3      100     0.000     0.000     0.000     0.000      101        0        0        0        0        0        0    16.412      100     53.7    8.819     1.75       15        1     1995  Amityhall_SweetPotatoGDDCRO_Sand_S2_riegoIRR.PRM
   Tot(6)        1       10     1995    224.4    492.4   1294.2   361.72    340.4    220.2      4.2     62.9      0.0    125.5       88    387.8    384.3      100     0.000     0.000     0.000     0.000       99        0        0        0        0        0        0    16.082      100     53.8    8.656     1.69       13        1     1996  Amityhall_SweetPotatoGDDCRO_Sand_S2_riegoIRR.PRM
   Tot(7)        1       10     1996    252.2    518.2   1297.0   363.17    340.4    246.3      5.9     77.1      0.0    117.0       81    409.3    412.9      100     0.000     0.000     0.000     0.000      105        0        0        0        0        0        0    17.308      100     53.9    9.324     1.78       19        1     1997  Amityhall_SweetPotatoGDDCRO_Sand_S2_riegoIRR.PRM
   Tot(8)        1       10     1997    222.5    492.9   1295.1   365.22    315.1    218.3      4.2     43.2      0.0    126.8       85    379.4    379.4      100     0.000     0.000     0.000     0.000       98        0        0        0        0        0        0    15.979      100     53.8    8.600     1.71       13        1     1998  Amityhall_SweetPotatoGDDCRO_Sand_S2_riegoIRR.PRM
   Tot(9)        1       10     1998    421.8    472.2   1296.4   367.54    230.4    367.6     54.2    147.3      0.0    100.8       72    366.8    366.8      100     0.000     0.000     0.000     0.000      101        0        0        0        0        0        0    16.791      100     53.7    9.023     1.94       15        1     1999  Amityhall_SweetPotatoGDDCRO_Sand_S2_riegoIRR.PRM
  Tot(10)        1       10     1999    392.9    510.6   1294.6   368.97    304.7    375.2     17.7    163.0      0.0    118.9       89    410.9    410.9      100     0.000     0.000     0.000     0.000      111        0        0        0        0        0        0    18.651      100     53.7   10.015     1.90       25        1     2000  Amityhall_SweetPotatoGDDCRO_Sand_S2_riegoIRR.PRM
  Tot(11)        1       10     2000    370.5    493.0   1294.3   370.35    253.8    346.9     23.6    124.1      0.0    113.4       74    378.4    374.0      100     0.000     0.000     0.000     0.000      105        0        0        0        0        0        0    17.596      100     53.8    9.458     1.92       19        1     2001  Amityhall_SweetPotatoGDDCRO_Sand_S2_riegoIRR.PRM
  Tot(12)        1       10     2001    455.1    474.6   1301.5   372.21    191.2    429.5     25.6    156.3      0.0    117.9       81    363.2    367.6      100     0.000     0.000     0.000     0.000      103        0        0        0        0        0        0    17.447      100     53.8    9.394     1.96       17        1     2002  Amityhall_SweetPotatoGDDCRO_Sand_S2_riegoIRR.PRM
  Tot(13)        1       10     2002    205.1    482.5   1295.7   374.54    302.5    199.4      5.7     44.8      0.0    102.8       70    371.4    371.4      100     0.000     0.000     0.000     0.000       98        0        0        0        0        0        0    16.370      100     53.8    8.810     1.86       13        1     2003  Amityhall_SweetPotatoGDDCRO_Sand_S2_riegoIRR.PRM
  Tot(14)        1       10     2003    291.2    499.0   1301.8   376.66    244.5    284.4      6.8     38.3      0.0    117.1       81    390.3    390.3      100     0.000     0.000     0.000     0.000       99        0        0        0        0        0        0    16.805      100     53.8    9.038     1.79       13        1     2004  Amityhall_SweetPotatoGDDCRO_Sand_S2_riegoIRR.PRM
  Tot(15)        1       10     2004    141.3    544.0   1304.9   378.66    385.8    140.9      0.4      5.6      0.0    108.8       70    428.2    428.2      100     0.000     0.000     0.000     0.000      100        0        0        0        0        0        0    17.197      100     53.8    9.256     1.73       14        1     2005  Amityhall_SweetPotatoGDDCRO_Sand_S2_riegoIRR.PRM
  Tot(16)        1       10     2005    709.8    451.0   1299.1   380.85    180.6    629.8     80.0    348.2      0.0    116.3       98    362.9    362.9      100     0.000     0.000     0.000     0.000      103        0        0        0        0        0        0    17.565      100     53.8    9.451     1.98       18        1     2006  Amityhall_SweetPotatoGDDCRO_Sand_S2_riegoIRR.PRM
  Tot(17)        1       10     2006    208.1    489.6   1304.2   382.85    305.1    202.2      5.9     39.8      0.0    111.8       74    372.8    372.8      100     0.000     0.000     0.000     0.000       95        0        0        0        0        0        0    16.419      100     53.8    8.834     1.83        9        1     2007  Amityhall_SweetPotatoGDDCRO_Sand_S2_riegoIRR.PRM
  Tot(18)        1       10     2007    615.8    468.8   1298.7   384.70    244.4    544.8     71.0    315.6      0.0    115.1       92    375.4    375.4      100     0.000     0.000     0.000     0.000      104        0        0        0        0        0        0    17.885      100     53.8    9.630     1.97       19        1     2008  Amityhall_SweetPotatoGDDCRO_Sand_S2_riegoIRR.PRM
  Tot(19)        1       10     2008    265.9    487.4   1302.9   386.51    303.2    256.2      9.7     79.1      0.0    118.6       84    378.3    378.3      100     0.000     0.000     0.000     0.000      103        0        0        0        0        0        0    17.909      100     53.8    9.642     1.95       18        1     2009  Amityhall_SweetPotatoGDDCRO_Sand_S2_riegoIRR.PRM
  Tot(20)        1       10     2009    249.9    482.5   1301.4   388.66    313.8    233.4     16.5     72.1      0.0    119.6       83    371.7    371.7      100     0.000     0.000     0.000     0.000       98        0        0        0        0        0        0    17.091      100     53.8    9.198     1.88       12        1     2010  Amityhall_SweetPotatoGDDCRO_Sand_S2_riegoIRR.PRM
  Tot(21)        1       10     2010    297.1    496.0   1299.4   390.77    291.4    287.9      9.2     91.6      0.0    113.1       83    391.5    391.5      100     0.000     0.000     0.000     0.000      109        0        0        0        0        0        0    19.277      100     53.8   10.370     2.06       24        1     2011  Amityhall_SweetPotatoGDDCRO_Sand_S2_riegoIRR.PRM
  Tot(22)        1       10     2011    208.1    498.0   1296.9   392.75    330.4    204.2      3.9     32.9      0.0    125.2       90    393.2    393.2      100     0.000     0.000     0.000     0.000      100        0        0        0        0        0        0    17.484      100     53.7    9.388     1.82       14        1     2012  Amityhall_SweetPotatoGDDCRO_Sand_S2_riegoIRR.PRM
  Tot(23)        1       10     2012    277.9    494.7   1299.4   395.19    335.8    242.1     35.8    100.3      0.0    113.4       78    381.2    381.2      100     0.000     0.000     0.000     0.000      100        0        0        0        0        0        0    17.590      100     53.8    9.467     1.92       15        1     2013  Amityhall_SweetPotatoGDDCRO_Sand_S2_riegoIRR.PRM
  Tot(24)        1       10     2013    139.2    481.3   1306.2   397.58    328.0    138.2      1.0      6.2      0.0    102.8       74    373.8    373.8      100     0.000     0.000     0.000     0.000       97        0        0        0        0        0        0    17.127      100     53.6    9.186     1.93       11        1     2014  Amityhall_SweetPotatoGDDCRO_Sand_S2_riegoIRR.PRM
  Tot(25)        1       10     2014    197.7    482.6   1298.0   399.74    267.4    196.2      1.5     13.6      0.0    100.5       67    365.6    370.7      100     0.000     0.000     0.000     0.000       98        0        0        0        0        0        0    17.396      100     53.8    9.363     2.02       12        1     2015  Amityhall_SweetPotatoGDDCRO_Sand_S2_riegoIRR.PRM
  Tot(26)        1       10     2015    272.3    460.6   1300.5   402.52    198.1    271.2      1.1     12.4      0.0    120.5       87    352.7    352.7      100     0.000     0.000     0.000     0.000       96        0        0        0        0        0        0    17.233      100     53.8    9.267     1.97       10        1     2016  Amityhall_SweetPotatoGDDCRO_Sand_S2_riegoIRR.PRM
  Tot(27)        1       10     2016    308.3    456.5   1299.9   405.21    210.1    304.8      3.5     58.7      0.0    119.8       91    353.0    353.0      100     0.000     0.000     0.000     0.000       98        0        0        0        0        0        0    17.635      100     53.8    9.491     2.02       12        1     2017  Amityhall_SweetPotatoGDDCRO_Sand_S2_riegoIRR.PRM
  Tot(28)        1       10     2017    602.5    419.9   1294.6   407.21    104.3    576.5     26.0    233.8      0.0    117.5       91    318.9    318.9      100     0.000     0.000     0.000     0.000      100        0        0        0        0        0        0    18.143      100     53.7    9.749     2.24       14        1     2018  Amityhall_SweetPotatoGDDCRO_Sand_S2_riegoIRR.PRM
  Tot(29)        1       10     2018    172.4    479.5   1295.5   409.21    355.1    167.2      5.2     47.1      0.0    122.5       87    369.4    369.4      100     0.000     0.000     0.000     0.000       98        0        0        0        0        0        0    17.544      100     53.8    9.442     1.93       13        1     2019  Amityhall_SweetPotatoGDDCRO_Sand_S2_riegoIRR.PRM
