AquaCrop 6.0 (March 2017) - Output created on (date) : 3/5/2021   at (time) : 4:08:43 PM

    RunNr     Day1   Month1    Year1     Rain      ETo       GD     CO2      Irri   Infilt   Runoff    Drain   Upflow        E     E/Ex       Tr      TrW   Tr/Trx    SaltIn   SaltOut    SaltUp  SaltProf     Cycle   SaltStr  FertStr  WeedStr  TempStr   ExpStr   StoStr  BioMass  Brelative   HI     Yield     WPet     DayN   MonthN    YearN
                                           mm       mm    °C.day    ppm        mm       mm       mm       mm       mm       mm        %       mm       mm        %    ton/ha    ton/ha    ton/ha    ton/ha      days       %        %        %        %        %        %    ton/ha        %       %    ton/ha    kg/m3
   Tot(1)        1       10     1990    259.0    331.4   1519.6   354.39      0.0    243.2     15.8     80.9      0.0    122.7       69     41.8     40.9       23     0.000     0.000     0.000     0.000       74        0        0        0        0        7       53     1.711       21     56.1    0.959     0.58       15       12     1990  Amityhall_TomatoGDDCRO_Clay_S2_rainfed.PRM
   Tot(2)        1       10     1991    123.5    368.5   1536.7   355.61      0.0    122.2      1.3      0.4      0.0    111.0       53    144.4    144.5       75     0.000     0.000     0.000     0.000       75        0        0        0        0       45       17     5.324       64     55.6    2.962     1.16       16       12     1991  Amityhall_TomatoGDDCRO_Clay_S2_rainfed.PRM
   Tot(3)        1       10     1992     47.0    377.4   1509.3   356.45      0.0     47.0      0.0      0.0      0.0     84.7       32     96.4     96.7       65     0.000     0.000     0.000     0.000       73        0        0        0        0       59       25     3.360       42     50.3    1.690     0.93       14       12     1992  Amityhall_TomatoGDDCRO_Clay_S2_rainfed.PRM
   Tot(4)        1       10     1993    160.1    366.2   1522.8   356.10      0.0    153.0      7.1      3.1      0.0    113.4       50    143.9    142.9       83     0.000     0.000     0.000     0.000       74        0        0        0        0       46       12     5.362       65     55.9    3.000     1.17       15       12     1993  Amityhall_TomatoGDDCRO_Clay_S2_rainfed.PRM
   Tot(5)        1       10     1994    167.0    365.6   1525.0   358.83      0.0    156.6     10.4      0.0      0.0    119.5       60    163.4    163.6       81     0.000     0.000     0.000     0.000       74        0        0        0        0       29       12     6.189       75     55.6    3.443     1.22       15       12     1994  Amityhall_TomatoGDDCRO_Clay_S2_rainfed.PRM
   Tot(6)        1       10     1995    194.6    355.9   1530.0   360.82      0.0    175.3     19.3     51.6      0.0    140.5       67    111.3    112.1       62     0.000     0.000     0.000     0.000       74        0        0        0        0       56       43     4.046       49     51.5    2.082     0.83       15       12     1995  Amityhall_TomatoGDDCRO_Clay_S2_rainfed.PRM
   Tot(7)        1       10     1996    232.3    359.8   1540.1   362.61      0.0    216.1     16.2      2.5      0.0    135.9       75    181.8    179.6       86     0.000     0.000     0.000     0.000       76        0        0        0        0       17       13     6.970       81     57.5    4.006     1.26       17       12     1996  Amityhall_TomatoGDDCRO_Clay_S2_rainfed.PRM
   Tot(8)        1       10     1997    189.1    356.9   1530.2   363.73      0.0    176.0     13.1     36.1      0.0    142.5       70    123.1    125.3       66     0.000     0.000     0.000     0.000       74        0        0        0        0       52       38     4.587       55     51.9    2.381     0.90       15       12     1997  Amityhall_TomatoGDDCRO_Clay_S2_rainfed.PRM
   Tot(9)        1       10     1998    384.7    335.6   1531.9   366.70      0.0    278.5    106.2     82.1      0.0    129.0       76     68.5     68.3       35     0.000     0.000     0.000     0.000       74        0        0        0        0        5       51     2.720       32     57.7    1.569     0.79       15       12     1998  Amityhall_TomatoGDDCRO_Clay_S2_rainfed.PRM
  Tot(10)        1       10     1999    366.2    339.9   1555.8   368.38      0.0    307.1     59.1    137.8      0.0    145.4       93    113.9    114.6       54     0.000     0.000     0.000     0.000       77        0        0        0        0        0       50     4.456       50     60.6    2.700     1.05       19       12     1999  Amityhall_TomatoGDDCRO_Clay_S2_rainfed.PRM
  Tot(11)        1       10     2000    277.4    359.2   1531.0   369.55      0.0    218.6     58.8     10.3      0.0    120.1       57    149.7    146.3       82     0.000     0.000     0.000     0.000       75        0        0        0        0       43       12     5.966       69     55.9    3.337     1.24       16       12     2000  Amityhall_TomatoGDDCRO_Clay_S2_rainfed.PRM
  Tot(12)        1       10     2001    349.9    346.4   1533.3   371.14      0.0    274.1     75.8    107.3      0.0    139.7       81     98.2     98.2       48     0.000     0.000     0.000     0.000       75        0        0        0        0        2       41     3.924       45     57.8    2.267     0.95       16       12     2001  Amityhall_TomatoGDDCRO_Clay_S2_rainfed.PRM
  Tot(13)        1       10     2002    153.2    353.3   1531.3   373.28      0.0    141.4     11.8     19.7      0.0    125.2       65    128.1    131.0       67     0.000     0.000     0.000     0.000       74        0        0        0        0       49       30     4.977       58     52.5    2.613     1.03       15       12     2002  Amityhall_TomatoGDDCRO_Clay_S2_rainfed.PRM
  Tot(14)        1       10     2003    234.2    355.4   1519.3   375.80      0.0    228.2      6.0      8.8      0.0    129.7       73    186.6    184.2       89     0.000     0.000     0.000     0.000       73        0        0        0        0       12        8     7.250       85     55.2    4.001     1.26       14       12     2003  Amityhall_TomatoGDDCRO_Clay_S2_rainfed.PRM
  Tot(15)        1       10     2004     91.5    402.1   1509.3   377.52      0.0     89.3      2.2      7.8      0.0    104.4       38    102.6    104.9       63     0.000     0.000     0.000     0.000       73        0        0        0        0       58       27     3.473       41     49.6    1.723     0.83       14       12     2004  Amityhall_TomatoGDDCRO_Clay_S2_rainfed.PRM
  Tot(16)        1       10     2005    630.3    317.1   1538.6   379.80      0.0    428.0    202.3    256.9      0.0    134.6       99     79.3     76.6       38     0.000     0.000     0.000     0.000       75        0        0        0        0        0       68     3.276       37     59.4    1.947     0.91       16       12     2005  Amityhall_TomatoGDDCRO_Clay_S2_rainfed.PRM
  Tot(17)        1       10     2006    196.6    355.4   1507.4   381.90      0.0    189.7      6.9      1.9      0.0    118.5       60    178.7    179.7       94     0.000     0.000     0.000     0.000       72        0        0        0        0       26        5     7.256       86     55.3    4.012     1.35       13       12     2006  Amityhall_TomatoGDDCRO_Clay_S2_rainfed.PRM
  Tot(18)        1       10     2007    607.0    323.4   1552.0   383.79      0.0    431.1    175.9    246.8      0.0    136.4       95     79.5     81.8       38     0.000     0.000     0.000     0.000       75        0        0        0        0        0       64     3.292       37     59.5    1.960     0.92       17       12     2007  Amityhall_TomatoGDDCRO_Clay_S2_rainfed.PRM
  Tot(19)        1       10     2008    251.8    334.8   1535.4   385.60      0.0    220.9     30.9     48.8      0.0    131.4       82     93.7     89.8       46     0.000     0.000     0.000     0.000       75        0        0        0        0        1       43     3.984       44     57.8    2.302     1.02       16       12     2008  Amityhall_TomatoGDDCRO_Clay_S2_rainfed.PRM
  Tot(20)        1       10     2009    129.6    358.5   1500.6   387.43      0.0    127.8      1.8      0.1      0.0    134.4       72    132.5    135.8       65     0.000     0.000     0.000     0.000       72        0        0        0        0       43       30     5.250       61     48.1    2.526     0.95       13       12     2009  Amityhall_TomatoGDDCRO_Clay_S2_rainfed.PRM
  Tot(21)        1       10     2010    279.4    338.8   1539.5   389.90      0.0    257.1     22.3     43.8      0.0    141.1       91    121.1    118.7       56     0.000     0.000     0.000     0.000       77        0        0        0        0        0       42     5.381       57     58.0    3.121     1.19       18       12     2010  Amityhall_TomatoGDDCRO_Clay_S2_rainfed.PRM
  Tot(22)        1       10     2011    195.3    358.0   1529.1   391.65      0.0    186.9      8.4     23.4      0.0    148.8       91    135.3    137.0       60     0.000     0.000     0.000     0.000       74        0        0        0        0        1       42     5.292       59     54.9    2.903     1.02       15       12     2011  Amityhall_TomatoGDDCRO_Clay_S2_rainfed.PRM
  Tot(23)        1       10     2012    270.7    348.9   1538.5   393.85      0.0    203.6     67.1     43.3      0.0    120.9       70    161.7    161.5       78     0.000     0.000     0.000     0.000       75        0        0        0        0        7       20     6.862       75     56.2    3.854     1.36       16       12     2012  Amityhall_TomatoGDDCRO_Clay_S2_rainfed.PRM
  Tot(24)        1       10     2013    125.8    346.0   1520.9   396.52      0.0    124.7      1.1      4.9      0.0    113.8       60    133.9    134.2       72     0.000     0.000     0.000     0.000       73        0        0        0        0       45       19     5.612       63     51.5    2.890     1.17       14       12     2013  Amityhall_TomatoGDDCRO_Clay_S2_rainfed.PRM
  Tot(25)        1       10     2014    161.8    351.0   1514.2   398.65      0.0    161.5      0.3      0.0      0.0    125.8       62    148.0    147.0       82     0.000     0.000     0.000     0.000       73        0        0        0        0       39       12     6.343       71     53.6    3.399     1.24       14       12     2014  Amityhall_TomatoGDDCRO_Clay_S2_rainfed.PRM
  Tot(26)        1       10     2015    244.1    336.0   1510.9   400.83      0.0    241.9      2.2      7.9      0.0    147.8       89    187.2    186.5       94     0.000     0.000     0.000     0.000       72        0        0        0        0        6       12     8.234       93     55.3    4.553     1.36       13       12     2015  Amityhall_TomatoGDDCRO_Clay_S2_rainfed.PRM
  Tot(27)        1       10     2016    295.2    322.5   1518.2   404.21      0.0    272.6     22.6     83.5      0.0    147.3       95     48.0     49.8       24     0.000     0.000     0.000     0.000       73        0        0        0        0        0       65     2.145       24     55.9    1.199     0.61       14       12     2016  Amityhall_TomatoGDDCRO_Clay_S2_rainfed.PRM
  Tot(28)        1       10     2017    464.7    303.4   1537.8   406.21      0.0    384.3     80.4    212.8      0.0    141.9       95     24.3     24.9       13     0.000     0.000     0.000     0.000       74        0        0        0        0        0       76     1.106       12     59.4    0.657     0.40       15       12     2017  Amityhall_TomatoGDDCRO_Clay_S2_rainfed.PRM
  Tot(29)        1       10     2018    148.1    346.5   1525.5   408.21      0.0    130.0     18.1     37.2      0.0    117.8       59    105.7    105.7       61     0.000     0.000     0.000     0.000       74        0        0        0        0       55       43     4.431       48     50.4    2.231     1.00       15       12     2018  Amityhall_TomatoGDDCRO_Clay_S2_rainfed.PRM
