AquaCrop 6.0 (March 2017) - Output created on (date) : 3/5/2021   at (time) : 4:11:31 PM

    RunNr     Day1   Month1    Year1     Rain      ETo       GD     CO2      Irri   Infilt   Runoff    Drain   Upflow        E     E/Ex       Tr      TrW   Tr/Trx    SaltIn   SaltOut    SaltUp  SaltProf     Cycle   SaltStr  FertStr  WeedStr  TempStr   ExpStr   StoStr  BioMass  Brelative   HI     Yield     WPet     DayN   MonthN    YearN
                                           mm       mm    °C.day    ppm        mm       mm       mm       mm       mm       mm        %       mm       mm        %    ton/ha    ton/ha    ton/ha    ton/ha      days       %        %        %        %        %        %    ton/ha        %       %    ton/ha    kg/m3
   Tot(1)        1       10     1990    259.0    331.4   1519.6   354.39      0.0    258.9      0.1      7.4      0.0    102.9       59    189.2    185.3      100     0.000     0.000     0.000     0.000       74        0        0        0        0        3        0     8.014       98     56.1    4.492     1.54       15       12     1990  Amityhall_TomatoGDDCRO_Loam_S2_rainfed.PRM
   Tot(2)        1       10     1991    123.5    368.5   1536.7   355.61      0.0    122.9      0.6      0.0      0.0     89.2       44    143.0    146.3       72     0.000     0.000     0.000     0.000       75        0        0        0        0       44       20     5.250       63     54.5    2.860     1.23       16       12     1991  Amityhall_TomatoGDDCRO_Loam_S2_rainfed.PRM
   Tot(3)        1       10     1992     47.0    377.4   1509.3   356.45      0.0     47.0      0.0      0.0      0.0     68.6       27     89.8     90.3       59     0.000     0.000     0.000     0.000       73        0        0        0        0       58       32     3.132       39     47.5    1.489     0.94       14       12     1992  Amityhall_TomatoGDDCRO_Loam_S2_rainfed.PRM
   Tot(4)        1       10     1993    160.1    366.2   1522.8   356.10      0.0    156.5      3.6      0.1      0.0     95.2       44    149.7    147.6       81     0.000     0.000     0.000     0.000       74        0        0        0        0       43       13     5.629       69     55.3    3.110     1.27       15       12     1993  Amityhall_TomatoGDDCRO_Loam_S2_rainfed.PRM
   Tot(5)        1       10     1994    167.0    365.6   1525.0   358.83      0.0    164.3      2.7      0.0      0.0     99.3       52    170.2    171.5       82     0.000     0.000     0.000     0.000       74        0        0        0        0       28       12     6.471       79     55.0    3.557     1.32       15       12     1994  Amityhall_TomatoGDDCRO_Loam_S2_rainfed.PRM
   Tot(6)        1       10     1995    194.6    355.9   1530.0   360.82      0.0    190.4      4.2     62.1      0.0    123.9       62    115.0    115.5       61     0.000     0.000     0.000     0.000       74        0        0        0        0       53       29     4.217       51     50.3    2.120     0.89       15       12     1995  Amityhall_TomatoGDDCRO_Loam_S2_rainfed.PRM
   Tot(7)        1       10     1996    232.3    359.8   1540.1   362.61      0.0    228.4      3.9      1.2      0.0    118.6       67    199.7    198.0       92     0.000     0.000     0.000     0.000       76        0        0        0        0       16        5     7.785       90     57.1    4.445     1.40       17       12     1996  Amityhall_TomatoGDDCRO_Loam_S2_rainfed.PRM
   Tot(8)        1       10     1997    189.1    356.9   1530.2   363.73      0.0    185.6      3.5     41.3      0.0    123.5       64    129.1    129.8       66     0.000     0.000     0.000     0.000       74        0        0        0        0       47       25     4.819       58     51.1    2.461     0.97       15       12     1997  Amityhall_TomatoGDDCRO_Loam_S2_rainfed.PRM
   Tot(9)        1       10     1998    384.7    335.6   1531.9   366.70      0.0    356.6     28.1     98.9      0.0    106.2       64    184.7    183.0       91     0.000     0.000     0.000     0.000       74        0        0        0        0        3        5     7.668       91     56.7    4.348     1.49       15       12     1998  Amityhall_TomatoGDDCRO_Loam_S2_rainfed.PRM
  Tot(10)        1       10     1999    366.2    339.9   1555.8   368.38      0.0    351.5     14.7    132.2      0.0    131.2       84    188.2    191.3       89     0.000     0.000     0.000     0.000       77        0        0        0        0        0        8     8.011       90     59.4    4.761     1.50       19       12     1999  Amityhall_TomatoGDDCRO_Loam_S2_rainfed.PRM
  Tot(11)        1       10     2000    277.4    359.2   1531.0   369.55      0.0    256.5     20.9     31.9      0.0     98.1       50    159.7    156.2       82     0.000     0.000     0.000     0.000       75        0        0        0        0       39       12     6.398       74     55.1    3.525     1.37       16       12     2000  Amityhall_TomatoGDDCRO_Loam_S2_rainfed.PRM
  Tot(12)        1       10     2001    349.9    346.4   1533.3   371.14      0.0    327.8     22.1    119.5      0.0    123.3       73    183.2    184.2       88     0.000     0.000     0.000     0.000       75        0        0        0        0        1        9     7.689       88     56.0    4.309     1.41       16       12     2001  Amityhall_TomatoGDDCRO_Loam_S2_rainfed.PRM
  Tot(13)        1       10     2002    153.2    353.3   1531.3   373.28      0.0    149.4      3.8     33.1      0.0    101.9       54    124.9    127.1       64     0.000     0.000     0.000     0.000       74        0        0        0        0       46       26     4.871       57     51.0    2.482     1.09       15       12     2002  Amityhall_TomatoGDDCRO_Loam_S2_rainfed.PRM
  Tot(14)        1       10     2003    234.2    355.4   1519.3   375.80      0.0    233.5      0.7      5.7      0.0    116.3       67    193.2    190.7       90     0.000     0.000     0.000     0.000       73        0        0        0        0       13        7     7.535       89     54.6    4.112     1.33       14       12     2003  Amityhall_TomatoGDDCRO_Loam_S2_rainfed.PRM
  Tot(15)        1       10     2004     91.5    402.1   1509.3   377.52      0.0     91.3      0.2      5.3      0.0     93.6       35     96.3     97.9       59     0.000     0.000     0.000     0.000       73        0        0        0        0       58       32     3.274       38     46.9    1.536     0.81       14       12     2004  Amityhall_TomatoGDDCRO_Loam_S2_rainfed.PRM
  Tot(16)        1       10     2005    630.3    317.1   1538.6   379.80      0.0    552.7     77.6    334.6      0.0    126.6       93    188.0    187.9       90     0.000     0.000     0.000     0.000       75        0        0        0        0        3        7     7.999       91     58.1    4.644     1.48       16       12     2005  Amityhall_TomatoGDDCRO_Loam_S2_rainfed.PRM
  Tot(17)        1       10     2006    196.6    355.4   1507.4   381.90      0.0    196.2      0.4      0.0      0.0     97.2       52    187.7    186.9       94     0.000     0.000     0.000     0.000       72        0        0        0        0       22        4     7.607       90     55.2    4.202     1.47       13       12     2006  Amityhall_TomatoGDDCRO_Loam_S2_rainfed.PRM
  Tot(18)        1       10     2007    607.0    323.4   1552.0   383.79      0.0    545.5     61.5    293.2      0.0    125.4       88    195.6    197.8       94     0.000     0.000     0.000     0.000       75        0        0        0        0        0        4     8.495       96     58.8    4.997     1.56       17       12     2007  Amityhall_TomatoGDDCRO_Loam_S2_rainfed.PRM
  Tot(19)        1       10     2008    251.8    334.8   1535.4   385.60      0.0    245.4      6.4     52.5      0.0    113.6       72    181.3    180.0       88     0.000     0.000     0.000     0.000       75        0        0        0        0        1        9     7.959       89     56.1    4.463     1.51       16       12     2008  Amityhall_TomatoGDDCRO_Loam_S2_rainfed.PRM
  Tot(20)        1       10     2009    129.6    358.5   1500.6   387.43      0.0    129.6      0.0      0.9      0.0    115.2       61    127.1    128.0       64     0.000     0.000     0.000     0.000       72        0        0        0        0       44       26     5.051       59     46.6    2.354     0.97       13       12     2009  Amityhall_TomatoGDDCRO_Loam_S2_rainfed.PRM
  Tot(21)        1       10     2010    279.4    338.8   1539.5   389.90      0.0    275.7      3.7     46.9      0.0    120.0       78    180.0    177.5       84     0.000     0.000     0.000     0.000       77        0        0        0        0        2       12     7.906       84     55.5    4.390     1.46       18       12     2010  Amityhall_TomatoGDDCRO_Loam_S2_rainfed.PRM
  Tot(22)        1       10     2011    195.3    358.0   1529.1   391.65      0.0    192.2      3.1     24.9      0.0    135.3       80    143.0    145.4       66     0.000     0.000     0.000     0.000       74        0        0        0        0       36       25     5.707       64     50.7    2.896     1.04       15       12     2011  Amityhall_TomatoGDDCRO_Loam_S2_rainfed.PRM
  Tot(23)        1       10     2012    270.7    348.9   1538.5   393.85      0.0    245.1     25.6     89.6      0.0     99.4       59    164.2    164.0       78     0.000     0.000     0.000     0.000       75        0        0        0        0       30       16     6.968       77     54.0    3.764     1.43       16       12     2012  Amityhall_TomatoGDDCRO_Loam_S2_rainfed.PRM
  Tot(24)        1       10     2013    125.8    346.0   1520.9   396.52      0.0    125.8      0.0      3.5      0.0     96.4       53    133.4    133.2       70     0.000     0.000     0.000     0.000       73        0        0        0        0       44       21     5.596       63     50.0    2.798     1.22       14       12     2013  Amityhall_TomatoGDDCRO_Loam_S2_rainfed.PRM
  Tot(25)        1       10     2014    161.8    351.0   1514.2   398.65      0.0    161.8      0.0      0.0      0.0    102.4       54    150.1    149.0       78     0.000     0.000     0.000     0.000       73        0        0        0        0       37       15     6.450       73     52.6    3.393     1.34       14       12     2014  Amityhall_TomatoGDDCRO_Loam_S2_rainfed.PRM
  Tot(26)        1       10     2015    244.1    336.0   1510.9   400.83      0.0    243.8      0.3      5.5      0.0    138.3       83    187.8    187.1       94     0.000     0.000     0.000     0.000       72        0        0        0        0        4        5     8.251       94     54.9    4.529     1.39       13       12     2015  Amityhall_TomatoGDDCRO_Loam_S2_rainfed.PRM
  Tot(27)        1       10     2016    295.2    322.5   1518.2   404.21      0.0    293.9      1.3     23.0      0.0    137.4       89    196.3    196.1      100     0.000     0.000     0.000     0.000       73        0        0        0        0        2        0     9.062      100     55.9    5.064     1.52       14       12     2016  Amityhall_TomatoGDDCRO_Loam_S2_rainfed.PRM
  Tot(28)        1       10     2017    464.7    303.4   1537.8   406.21      0.0    452.2     12.5    143.9      0.0    133.7       89    180.2    179.8      100     0.000     0.000     0.000     0.000       74        0        0        0        0        0        0     9.275      100     59.4    5.514     1.76       15       12     2017  Amityhall_TomatoGDDCRO_Loam_S2_rainfed.PRM
  Tot(29)        1       10     2018    148.1    346.5   1525.5   408.21      0.0    143.0      5.1     46.5      0.0    105.9       54    103.6    106.9       59     0.000     0.000     0.000     0.000       74        0        0        0        0       53       32     4.338       47     48.7    2.111     1.01       15       12     2018  Amityhall_TomatoGDDCRO_Loam_S2_rainfed.PRM
