AquaCrop 6.0 (March 2017) - Output created on (date) : 3/5/2021   at (time) : 3:52:36 PM

    RunNr     Day1   Month1    Year1     Rain      ETo       GD     CO2      Irri   Infilt   Runoff    Drain   Upflow        E     E/Ex       Tr      TrW   Tr/Trx    SaltIn   SaltOut    SaltUp  SaltProf     Cycle   SaltStr  FertStr  WeedStr  TempStr   ExpStr   StoStr  BioMass  Brelative   HI     Yield     WPet     DayN   MonthN    YearN
                                           mm       mm    °C.day    ppm        mm       mm       mm       mm       mm       mm        %       mm       mm        %    ton/ha    ton/ha    ton/ha    ton/ha      days       %        %        %        %        %        %    ton/ha        %       %    ton/ha    kg/m3
   Tot(1)       31       10     1990    193.9    490.9   1735.7   355.00      0.0    186.2      7.7     14.6      0.0    174.3       72    230.7    230.0       83     0.000     0.000     0.000     0.000      100        0        0        0        0        0       11     6.897       84     26.5    1.828     0.45       13        2     1991  Amityhall_GroundnutGDDCRO_ClayLoam_S2_rainfed.PRM
   Tot(2)       31       10     1991    102.3    496.9   1733.8   356.03      0.0     99.5      2.8      4.4      0.0    117.2       44    209.8    209.8       80     0.000     0.000     0.000     0.000      100        0        0        0        0        2       15     6.545       79     26.5    1.735     0.53       13        2     1992  Amityhall_GroundnutGDDCRO_ClayLoam_S2_rainfed.PRM
   Tot(3)       31       10     1992    103.8    516.9   1723.7   356.27      0.0    103.6      0.2      0.0      0.0     86.6       31    242.9    239.7       89     0.000     0.000     0.000     0.000       98        0        0        0        0        7        7     7.175       89     26.5    1.901     0.58       11        2     1993  Amityhall_GroundnutGDDCRO_ClayLoam_S2_rainfed.PRM
   Tot(4)       31       10     1993    168.5    503.3   1730.5   357.47      0.0    159.3      9.2     11.8      0.0    134.5       50    240.6    243.3       90     0.000     0.000     0.000     0.000       99        0        0        0        0        0        6     7.458       91     26.5    1.976     0.53       12        2     1994  Amityhall_GroundnutGDDCRO_ClayLoam_S2_rainfed.PRM
   Tot(5)       31       10     1994    161.9    499.9   1728.9   359.82      0.0    148.8     13.1     24.2      0.0    145.0       56    213.7    214.3       79     0.000     0.000     0.000     0.000       99        0        0        0        0        2       15     6.489       79     26.5    1.720     0.48       12        2     1995  Amityhall_GroundnutGDDCRO_ClayLoam_S2_rainfed.PRM
   Tot(6)       31       10     1995    106.4    510.0   1726.9   361.72      0.0    106.4      0.0      0.0      0.0    124.5       47    214.4    214.2       78     0.000     0.000     0.000     0.000       98        0        0        0        0        2       15     6.455       79     26.5    1.710     0.50       11        2     1996  Amityhall_GroundnutGDDCRO_ClayLoam_S2_rainfed.PRM
   Tot(7)       31       10     1996    190.5    515.1   1749.4   363.17      0.0    173.6     16.9     39.8      0.0    149.5       57    220.9    221.6       79     0.000     0.000     0.000     0.000      101        0        0        0        0        2       15     6.688       79     26.5    1.772     0.48       15        2     1997  Amityhall_GroundnutGDDCRO_ClayLoam_S2_rainfed.PRM
   Tot(8)       31       10     1997    151.6    485.6   1716.1   365.22      0.0    151.3      0.3      0.0      0.0    124.5       48    246.4    244.7       95     0.000     0.000     0.000     0.000       97        0        0        0        0        0        3     7.790       96     26.5    2.064     0.56       10        2     1998  Amityhall_GroundnutGDDCRO_ClayLoam_S2_rainfed.PRM
   Tot(9)       31       10     1998    275.0    485.7   1745.3   367.54      0.0    237.4     37.6     32.0      0.0    158.3       62    255.9    257.6       99     0.000     0.000     0.000     0.000       99        0        0        0        0        0        1     8.292       99     26.5    2.197     0.53       13        2     1999  Amityhall_GroundnutGDDCRO_ClayLoam_S2_rainfed.PRM
  Tot(10)       31       10     1999    189.8    504.4   1738.6   368.97      0.0    173.8     16.0     36.6      0.0    151.1       58    222.0    222.0       81     0.000     0.000     0.000     0.000      105        0        0        0        0        0       13     7.274       81     26.5    1.928     0.52       19        2     2000  Amityhall_GroundnutGDDCRO_ClayLoam_S2_rainfed.PRM
  Tot(11)       31       10     2000    323.5    476.8   1732.7   370.35      0.0    272.1     51.4     53.2      0.0    132.8       52    250.0    246.3      100     0.000     0.000     0.000     0.000      102        0        0        0        0        0        0     8.726      100     25.1    2.188     0.57       15        2     2001  Amityhall_GroundnutGDDCRO_ClayLoam_S2_rainfed.PRM
  Tot(12)       31       10     2001    317.4    465.9   1737.2   372.21      0.0    259.0     58.4     60.1      0.0    148.6       61    249.6    250.1      100     0.000     0.000     0.000     0.000      100        0        0        0        0        0        0     8.462      100     25.8    2.181     0.55       13        2     2002  Amityhall_GroundnutGDDCRO_ClayLoam_S2_rainfed.PRM
  Tot(13)       31       10     2002    186.4    476.5   1720.3   374.54      0.0    179.7      6.7      0.0      0.0    119.8       47    252.5    251.9      100     0.000     0.000     0.000     0.000       97        0        0        0        0        0        0     8.325      100     26.5    2.206     0.59       10        2     2003  Amityhall_GroundnutGDDCRO_ClayLoam_S2_rainfed.PRM
  Tot(14)       31       10     2003    224.4    504.3   1718.7   376.66      0.0    215.2      9.2     14.5      0.0    160.9       61    258.3    260.1       95     0.000     0.000     0.000     0.000       98        0        0        0        0        0        3     8.172       96     26.5    2.166     0.52       11        2     2004  Amityhall_GroundnutGDDCRO_ClayLoam_S2_rainfed.PRM
  Tot(15)       31       10     2004    125.6    545.8   1726.8   378.66      0.0    125.6      0.0      0.0      0.0    111.7       38    245.2    246.3       87     0.000     0.000     0.000     0.000      101        0        0        0        0        0        9     7.802       88     26.5    2.068     0.58       14        2     2005  Amityhall_GroundnutGDDCRO_ClayLoam_S2_rainfed.PRM
  Tot(16)       31       10     2005    231.6    469.7   1739.5   380.85      0.0    230.7      0.9      0.0      0.0    155.6       62    245.9    246.7      100     0.000     0.000     0.000     0.000      100        0        0        0        0        0        0     8.756      100     25.7    2.248     0.56       14        2     2006  Amityhall_GroundnutGDDCRO_ClayLoam_S2_rainfed.PRM
  Tot(17)       31       10     2006    158.9    494.0   1710.2   382.85      0.0    152.0      6.9     14.4      0.0    143.9       56    220.9    218.6       82     0.000     0.000     0.000     0.000       96        0        0        0        0        0       12     6.815       83     26.5    1.806     0.49        8        2     2007  Amityhall_GroundnutGDDCRO_ClayLoam_S2_rainfed.PRM
  Tot(18)       31       10     2007    296.3    482.7   1746.1   384.70      0.0    216.7     79.6     68.0      0.0    142.3       57    234.4    236.8       90     0.000     0.000     0.000     0.000      100        0        0        0        0        0        7     8.011       91     26.5    2.123     0.56       14        2     2008  Amityhall_GroundnutGDDCRO_ClayLoam_S2_rainfed.PRM
  Tot(19)       31       10     2008    174.1    487.4   1735.1   386.51      0.0    147.2     26.9     40.1      0.0    129.4       52    212.2    211.7       79     0.000     0.000     0.000     0.000      101        0        0        0        0        1       14     7.165       80     26.5    1.899     0.56       14        2     2009  Amityhall_GroundnutGDDCRO_ClayLoam_S2_rainfed.PRM
  Tot(20)       31       10     2009    163.6    475.3   1707.3   388.66      0.0    140.5     23.1      0.0      0.0     92.0       36    247.4    244.7      100     0.000     0.000     0.000     0.000       97        0        0        0        0        0        0     8.574      100     26.0    2.227     0.66       10        2     2010  Amityhall_GroundnutGDDCRO_ClayLoam_S2_rainfed.PRM
  Tot(21)       31       10     2010    158.5    486.6   1747.6   390.77      0.0    153.1      5.4      5.6      0.0    133.9       52    237.1    240.3       93     0.000     0.000     0.000     0.000      104        0        0        0        0        0        5     8.639       93     26.5    2.289     0.62       18        2     2011  Amityhall_GroundnutGDDCRO_ClayLoam_S2_rainfed.PRM
  Tot(22)       31       10     2011     66.4    501.6   1721.4   392.75      0.0     66.2      0.2      0.0      0.0     94.0       35    206.3    205.8       79     0.000     0.000     0.000     0.000       98        0        0        0        0        3       15     6.891       79     26.5    1.826     0.61       11        2     2012  Amityhall_GroundnutGDDCRO_ClayLoam_S2_rainfed.PRM
  Tot(23)       31       10     2012     90.4    489.4   1724.0   395.19      0.0     89.1      1.3      0.6      0.0    112.8       44    209.4    209.4       80     0.000     0.000     0.000     0.000       98        0        0        0        0        1       14     7.003       80     26.5    1.856     0.58       11        2     2013  Amityhall_GroundnutGDDCRO_ClayLoam_S2_rainfed.PRM
  Tot(24)       31       10     2013    122.3    477.4   1719.0   397.58      0.0    120.6      1.7      2.2      0.0    117.4       47    229.2    228.7       90     0.000     0.000     0.000     0.000       96        0        0        0        0        0        7     7.819       91     26.5    2.072     0.60        9        2     2014  Amityhall_GroundnutGDDCRO_ClayLoam_S2_rainfed.PRM
  Tot(25)       31       10     2014    160.9    467.7   1719.9   399.74      0.0    159.4      1.5      0.0      0.0    134.8       54    239.3    238.5       97     0.000     0.000     0.000     0.000       97        0        0        0        0        0        2     8.512       97     26.5    2.256     0.60       10        2     2015  Amityhall_GroundnutGDDCRO_ClayLoam_S2_rainfed.PRM
  Tot(26)       31       10     2015    193.2    454.3   1719.8   402.52      0.0    190.7      2.5      2.1      0.0    180.2       75    229.0    229.3       95     0.000     0.000     0.000     0.000       96        0        0        0        0        0        4     8.283       95     26.5    2.195     0.54        9        2     2016  Amityhall_GroundnutGDDCRO_ClayLoam_S2_rainfed.PRM
  Tot(27)       31       10     2016    170.3    467.6   1715.0   405.21      0.0    163.7      6.6     11.8      0.0    162.9       67    219.5    220.1       87     0.000     0.000     0.000     0.000       97        0        0        0        0        0        9     7.723       87     26.5    2.047     0.54       10        2     2017  Amityhall_GroundnutGDDCRO_ClayLoam_S2_rainfed.PRM
  Tot(28)       31       10     2017    435.1    411.7   1735.3   407.21      0.0    380.8     54.3     53.7      0.0    183.2       85    221.2    218.7      100     0.000     0.000     0.000     0.000       99        0        0        0        0        0        0     9.123      100     25.0    2.281     0.56       12        2     2018  Amityhall_GroundnutGDDCRO_ClayLoam_S2_rainfed.PRM
  Tot(29)       31       10     2018     75.0    473.2   1716.0   409.21      0.0     75.0      0.0      0.0      0.0     83.8       33    219.6    222.1       88     0.000     0.000     0.000     0.000       97        0        0        0        0        1        8     7.888       88     26.5    2.090     0.69       10        2     2019  Amityhall_GroundnutGDDCRO_ClayLoam_S2_rainfed.PRM
