AquaCrop 6.0 (March 2017) - Output created on (date) : 3/5/2021   at (time) : 4:11:53 PM

    RunNr     Day1   Month1    Year1     Rain      ETo       GD     CO2      Irri   Infilt   Runoff    Drain   Upflow        E     E/Ex       Tr      TrW   Tr/Trx    SaltIn   SaltOut    SaltUp  SaltProf     Cycle   SaltStr  FertStr  WeedStr  TempStr   ExpStr   StoStr  BioMass  Brelative   HI     Yield     WPet     DayN   MonthN    YearN
                                           mm       mm    °C.day    ppm        mm       mm       mm       mm       mm       mm        %       mm       mm        %    ton/ha    ton/ha    ton/ha    ton/ha      days       %        %        %        %        %        %    ton/ha        %       %    ton/ha    kg/m3
   Tot(1)        1       10     1990    259.0    331.4   1519.6   354.39    102.6    257.8      1.2     31.3      0.0    146.4       87    194.9    191.0      100     0.000     0.000     0.000     0.000       74        0        0        0        0        0        0     8.256      100     56.1    4.628     1.36       15       12     1990  Amityhall_TomatoGDDCRO_Loam_S2_riegoIRR.PRM
   Tot(2)        1       10     1991    123.5    368.5   1536.7   355.61    265.7    121.8      1.7     19.1      0.0    154.1       87    226.4    226.3      100     0.000     0.000     0.000     0.000       75        0        0        0        0        0        0     8.361      100     59.4    4.970     1.31       16       12     1991  Amityhall_TomatoGDDCRO_Loam_S2_riegoIRR.PRM
   Tot(3)        1       10     1992     47.0    377.4   1509.3   356.45    324.1     47.0      0.0      0.0      0.0    152.1       84    230.9    230.6      100     0.000     0.000     0.000     0.000       73        0        0        0        0        0        0     8.116      100     55.9    4.535     1.18       14       12     1992  Amityhall_TomatoGDDCRO_Loam_S2_riegoIRR.PRM
   Tot(4)        1       10     1993    160.1    366.2   1522.8   356.10    251.7    153.9      6.2     36.4      0.0    153.0       87    224.4    226.1      100     0.000     0.000     0.000     0.000       74        0        0        0        0        0        0     8.260      100     57.7    4.763     1.26       15       12     1993  Amityhall_TomatoGDDCRO_Loam_S2_riegoIRR.PRM
   Tot(5)        1       10     1994    167.0    365.6   1525.0   358.83    238.7    161.6      5.4     38.5      0.0    153.3       86    220.7    219.4      100     0.000     0.000     0.000     0.000       74        0        0        0        0        0        0     8.307      100     57.7    4.790     1.28       15       12     1994  Amityhall_TomatoGDDCRO_Loam_S2_riegoIRR.PRM
   Tot(6)        1       10     1995    194.6    355.9   1530.0   360.82    238.2    190.4      4.2     62.1      0.0    153.4       94    225.2    225.0      100     0.000     0.000     0.000     0.000       74        0        0        0        0        0        0     8.352      100     57.7    4.816     1.27       15       12     1995  Amityhall_TomatoGDDCRO_Loam_S2_riegoIRR.PRM
   Tot(7)        1       10     1996    232.3    359.8   1540.1   362.61    212.8    226.4      5.9     73.4      0.0    153.0       91    224.6    224.5      100     0.000     0.000     0.000     0.000       76        0        0        0        0        0        0     8.698      100     57.9    5.036     1.33       17       12     1996  Amityhall_TomatoGDDCRO_Loam_S2_riegoIRR.PRM
   Tot(8)        1       10     1997    189.1    356.9   1530.2   363.73    225.1    184.8      4.3     43.7      0.0    154.0       92    223.0    224.4      100     0.000     0.000     0.000     0.000       74        0        0        0        0        0        0     8.386      100     57.7    4.835     1.28       15       12     1997  Amityhall_TomatoGDDCRO_Loam_S2_riegoIRR.PRM
   Tot(9)        1       10     1998    384.7    335.6   1531.9   366.70    149.3    330.4     54.3    145.6      0.0    141.3       88    205.7    205.3      100     0.000     0.000     0.000     0.000       74        0        0        0        0        0        0     8.519      100     57.7    4.912     1.42       15       12     1998  Amityhall_TomatoGDDCRO_Loam_S2_riegoIRR.PRM
  Tot(10)        1       10     1999    366.2    339.9   1555.8   368.38    154.8    348.6     17.6    158.0      0.0    147.1       94    212.6    215.7      100     0.000     0.000     0.000     0.000       77        0        0        0        0        0        0     8.990      100     61.0    5.484     1.54       19       12     1999  Amityhall_TomatoGDDCRO_Loam_S2_riegoIRR.PRM
  Tot(11)        1       10     2000    277.4    359.2   1531.0   369.55    222.2    255.2     22.2    118.8      0.0    149.9       87    221.0    217.1      100     0.000     0.000     0.000     0.000       75        0        0        0        0        0        0     8.704      100     57.8    5.030     1.36       16       12     2000  Amityhall_TomatoGDDCRO_Loam_S2_riegoIRR.PRM
  Tot(12)        1       10     2001    349.9    346.4   1533.3   371.14    156.2    326.4     23.5    130.5      0.0    152.7       91    210.1    210.6      100     0.000     0.000     0.000     0.000       75        0        0        0        0        0        0     8.773      100     57.8    5.070     1.40       16       12     2001  Amityhall_TomatoGDDCRO_Loam_S2_riegoIRR.PRM
  Tot(13)        1       10     2002    153.2    353.3   1531.3   373.28    249.1    147.7      5.5     43.6      0.0    144.1       88    221.7    221.9      100     0.000     0.000     0.000     0.000       74        0        0        0        0        0        0     8.615      100     57.7    4.968     1.36       15       12     2002  Amityhall_TomatoGDDCRO_Loam_S2_riegoIRR.PRM
  Tot(14)        1       10     2003    234.2    355.4   1519.3   375.80    170.0    228.0      6.2     35.7      0.0    153.4       91    220.1    219.5      100     0.000     0.000     0.000     0.000       73        0        0        0        0        0        0     8.559      100     55.9    4.783     1.28       14       12     2003  Amityhall_TomatoGDDCRO_Loam_S2_riegoIRR.PRM
  Tot(15)        1       10     2004     91.5    402.1   1509.3   377.52    321.1     91.1      0.4      5.3      0.0    158.7       85    252.3    252.1      100     0.000     0.000     0.000     0.000       73        0        0        0        0        0        0     8.600      100     55.9    4.806     1.17       14       12     2004  Amityhall_TomatoGDDCRO_Loam_S2_riegoIRR.PRM
  Tot(16)        1       10     2005    630.3    317.1   1538.6   379.80    122.0    550.9     79.4    341.1      0.0    135.0       99    209.4    210.1      100     0.000     0.000     0.000     0.000       75        0        0        0        0        0        0     8.899      100     59.4    5.290     1.54       16       12     2005  Amityhall_TomatoGDDCRO_Loam_S2_riegoIRR.PRM
  Tot(17)        1       10     2006    196.6    355.4   1507.4   381.90    197.4    190.7      5.9     37.2      0.0    152.1       86    210.9    210.1      100     0.000     0.000     0.000     0.000       72        0        0        0        0        0        0     8.549      100     55.9    4.778     1.32       13       12     2006  Amityhall_TomatoGDDCRO_Loam_S2_riegoIRR.PRM
  Tot(18)        1       10     2007    607.0    323.4   1552.0   383.79    108.8    535.6     71.4    312.7      0.0    136.6       95    207.1    211.2      100     0.000     0.000     0.000     0.000       75        0        0        0        0        0        0     8.947      100     59.5    5.326     1.56       17       12     2007  Amityhall_TomatoGDDCRO_Loam_S2_riegoIRR.PRM
  Tot(19)        1       10     2008    251.8    334.8   1535.4   385.60    173.4    241.9      9.9     75.6      0.0    145.2       92    206.8    202.9      100     0.000     0.000     0.000     0.000       75        0        0        0        0        0        0     9.041      100     57.8    5.225     1.48       16       12     2008  Amityhall_TomatoGDDCRO_Loam_S2_riegoIRR.PRM
  Tot(20)        1       10     2009    129.6    358.5   1500.6   387.43    245.2    127.7      1.9     10.5      0.0    154.3       90    219.8    218.9      100     0.000     0.000     0.000     0.000       72        0        0        0        0        0        0     8.623      100     54.1    4.666     1.25       13       12     2009  Amityhall_TomatoGDDCRO_Loam_S2_riegoIRR.PRM
  Tot(21)        1       10     2010    279.4    338.8   1539.5   389.90    174.5    269.9      9.5     77.7      0.0    140.9       92    215.0    216.8      100     0.000     0.000     0.000     0.000       77        0        0        0        0        0        0     9.449      100     58.0    5.482     1.54       18       12     2010  Amityhall_TomatoGDDCRO_Loam_S2_riegoIRR.PRM
  Tot(22)        1       10     2011    195.3    358.0   1529.1   391.65    209.6    191.4      3.9     31.0      0.0    155.3       95    226.8    225.6      100     0.000     0.000     0.000     0.000       74        0        0        0        0        0        0     8.987      100     57.7    5.182     1.36       15       12     2011  Amityhall_TomatoGDDCRO_Loam_S2_riegoIRR.PRM
  Tot(23)        1       10     2012    270.7    348.9   1538.5   393.85    210.6    234.8     35.9     97.3      0.0    144.9       88    215.5    215.8      100     0.000     0.000     0.000     0.000       75        0        0        0        0        0        0     9.183      100     57.8    5.307     1.47       16       12     2012  Amityhall_TomatoGDDCRO_Loam_S2_riegoIRR.PRM
  Tot(24)        1       10     2013    125.8    346.0   1520.9   396.52    225.1    124.8      1.0      4.6      0.0    144.0       88    213.4    213.1      100     0.000     0.000     0.000     0.000       73        0        0        0        0        0        0     8.919      100     55.9    4.984     1.39       14       12     2013  Amityhall_TomatoGDDCRO_Loam_S2_riegoIRR.PRM
  Tot(25)        1       10     2014    161.8    351.0   1514.2   398.65    194.2    161.0      0.8      1.3      0.0    149.0       86    209.5    211.3      100     0.000     0.000     0.000     0.000       73        0        0        0        0        0        0     8.951      100     55.9    5.002     1.40       14       12     2014  Amityhall_TomatoGDDCRO_Loam_S2_riegoIRR.PRM
  Tot(26)        1       10     2015    244.1    336.0   1510.9   400.83    108.7    243.0      1.1      9.1      0.0    153.0       93    201.7    200.5      100     0.000     0.000     0.000     0.000       72        0        0        0        0        0        0     8.874      100     55.9    4.959     1.40       13       12     2015  Amityhall_TomatoGDDCRO_Loam_S2_riegoIRR.PRM
  Tot(27)        1       10     2016    295.2    322.5   1518.2   404.21     92.6    291.6      3.6     54.7      0.0    145.8       94    196.5    196.8      100     0.000     0.000     0.000     0.000       73        0        0        0        0        0        0     9.069      100     55.9    5.068     1.48       14       12     2016  Amityhall_TomatoGDDCRO_Loam_S2_riegoIRR.PRM
  Tot(28)        1       10     2017    464.7    303.4   1537.8   406.21     45.0    445.6     19.1    173.5      0.0    142.5       95    180.3    179.9      100     0.000     0.000     0.000     0.000       74        0        0        0        0        0        0     9.279      100     59.4    5.516     1.71       15       12     2017  Amityhall_TomatoGDDCRO_Loam_S2_riegoIRR.PRM
  Tot(29)        1       10     2018    148.1    346.5   1525.5   408.21    256.3    143.0      5.1     46.5      0.0    147.6       93    217.2    216.7      100     0.000     0.000     0.000     0.000       74        0        0        0        0        0        0     9.219      100     57.7    5.316     1.46       15       12     2018  Amityhall_TomatoGDDCRO_Loam_S2_riegoIRR.PRM
