AquaCrop 6.0 (March 2017) - Output created on (date) : 3/5/2021   at (time) : 4:09:47 PM

    RunNr     Day1   Month1    Year1     Rain      ETo       GD     CO2      Irri   Infilt   Runoff    Drain   Upflow        E     E/Ex       Tr      TrW   Tr/Trx    SaltIn   SaltOut    SaltUp  SaltProf     Cycle   SaltStr  FertStr  WeedStr  TempStr   ExpStr   StoStr  BioMass  Brelative   HI     Yield     WPet     DayN   MonthN    YearN
                                           mm       mm    °C.day    ppm        mm       mm       mm       mm       mm       mm        %       mm       mm        %    ton/ha    ton/ha    ton/ha    ton/ha      days       %        %        %        %        %        %    ton/ha        %       %    ton/ha    kg/m3
   Tot(1)        1        5     1990    102.5    447.9   1516.3   354.39    348.3     95.4      7.1      0.0      0.0    187.1       85    271.1    265.6      100     0.000     0.000     0.000     0.000       73        0        0        0        0        0        0     8.046      100     57.5    4.629     1.01       14        7     1990  Amityhall_TomatoGDDCRO_ClayLoam_S1_riegoIRR.PRM
   Tot(2)        1        5     1991    112.3    433.2   1529.3   355.61    338.7    100.6     11.7      5.2      0.0    176.6       88    272.5    272.9      100     0.000     0.000     0.000     0.000       74        0        0        0        0        0        0     8.198      100     57.7    4.727     1.05       15        7     1991  Amityhall_TomatoGDDCRO_ClayLoam_S1_riegoIRR.PRM
   Tot(3)        1        5     1992    109.9    443.2   1529.3   356.45    333.4    103.4      6.5      0.0      0.0    180.9       85    272.0    273.1      100     0.000     0.000     0.000     0.000       74        0        0        0        0        0        0     8.177      100     57.5    4.704     1.04       15        7     1992  Amityhall_TomatoGDDCRO_ClayLoam_S1_riegoIRR.PRM
   Tot(4)        1        5     1993    254.0    409.7   1539.8   356.10    223.6    221.6     32.4     19.6      0.0    177.8       96    262.1    260.6      100     0.000     0.000     0.000     0.000       75        0        0        0        0        0        0     8.294      100     57.7    4.782     1.09       16        7     1993  Amityhall_TomatoGDDCRO_ClayLoam_S1_riegoIRR.PRM
   Tot(5)        1        5     1994     89.9    481.6   1502.9   358.83    398.7     87.9      2.0      0.0      0.0    198.5       88    302.7    302.7      100     0.000     0.000     0.000     0.000       72        0        0        0        0        0        0     7.997      100     55.7    4.455     0.89       13        7     1994  Amityhall_TomatoGDDCRO_ClayLoam_S1_riegoIRR.PRM
   Tot(6)        1        5     1995    117.2    450.2   1503.9   360.82    339.6    114.5      2.7      1.4      0.0    189.1       88    277.9    277.7      100     0.000     0.000     0.000     0.000       72        0        0        0        0        0        0     8.033      100     55.7    4.475     0.96       13        7     1995  Amityhall_TomatoGDDCRO_ClayLoam_S1_riegoIRR.PRM
   Tot(7)        1        5     1996    108.6    456.2   1512.3   362.61    353.7    105.9      2.7      0.0      0.0    189.1       89    286.7    288.4      100     0.000     0.000     0.000     0.000       73        0        0        0        0        0        0     8.183      100     55.7    4.558     0.96       14        7     1996  Amityhall_TomatoGDDCRO_ClayLoam_S1_riegoIRR.PRM
   Tot(8)        1        5     1997    205.1    452.1   1530.4   363.73    316.6    150.4     54.7     28.3      0.0    190.5       82    262.9    261.6      100     0.000     0.000     0.000     0.000       74        0        0        0        0        0        0     8.378      100     57.7    4.831     1.07       15        7     1997  Amityhall_TomatoGDDCRO_ClayLoam_S1_riegoIRR.PRM
   Tot(9)        1        5     1998    142.2    456.7   1494.5   366.70    328.1    125.3     16.9      0.3      0.0    193.7       86    274.4    274.5      100     0.000     0.000     0.000     0.000       71        0        0        0        0        0        0     7.982      100     53.9    4.301     0.92       12        7     1998  Amityhall_TomatoGDDCRO_ClayLoam_S1_riegoIRR.PRM
  Tot(10)        1        5     1999    225.4    439.6   1530.0   368.38    234.5    209.6     15.8      0.0      0.0    191.1       90    268.6    269.2      100     0.000     0.000     0.000     0.000       74        0        0        0        0        0        0     8.481      100     57.7    4.891     1.06       15        7     1999  Amityhall_TomatoGDDCRO_ClayLoam_S1_riegoIRR.PRM
  Tot(11)        1        5     2000    123.8    459.7   1508.6   369.55    344.1    114.2      9.6      0.0      0.0    194.1       87    279.1    278.4      100     0.000     0.000     0.000     0.000       73        0        0        0        0        0        0     8.345      100     55.7    4.649     0.98       14        7     2000  Amityhall_TomatoGDDCRO_ClayLoam_S1_riegoIRR.PRM
  Tot(12)        1        5     2001    165.4    451.7   1506.2   371.14    336.4    140.0     25.4     11.7      0.0    193.0       93    286.8    287.0      100     0.000     0.000     0.000     0.000       73        0        0        0        0        0        0     8.369      100     55.7    4.662     0.97       14        7     2001  Amityhall_TomatoGDDCRO_ClayLoam_S1_riegoIRR.PRM
  Tot(13)        1        5     2002    383.6    417.3   1533.4   373.28    267.1    264.2    119.4    121.2      0.0    176.0       85    249.9    250.7      100     0.000     0.000     0.000     0.000       75        0        0        0        0        0        0     8.716      100     57.7    5.026     1.18       16        7     2002  Amityhall_TomatoGDDCRO_ClayLoam_S1_riegoIRR.PRM
  Tot(14)        1        5     2003    242.9    454.0   1519.4   375.80    264.9    198.7     44.2     12.1      0.0    194.1       86    271.5    271.2      100     0.000     0.000     0.000     0.000       73        0        0        0        0        0        0     8.500      100     57.5    4.890     1.05       14        7     2003  Amityhall_TomatoGDDCRO_ClayLoam_S1_riegoIRR.PRM
  Tot(15)        1        5     2004     92.5    464.1   1520.0   377.52    374.2     89.4      3.1      0.0      0.0    194.4       87    284.6    284.4      100     0.000     0.000     0.000     0.000       73        0        0        0        0        0        0     8.517      100     57.5    4.900     1.02       14        7     2004  Amityhall_TomatoGDDCRO_ClayLoam_S1_riegoIRR.PRM
  Tot(16)        1        5     2005    691.0    391.5   1527.5   379.80     83.0    447.3    243.7    113.4      0.0    183.2       94    232.6    232.6      100     0.000     0.000     0.000     0.000       73        0        0        0        0        0        0     8.576      100     57.5    4.934     1.19       14        7     2005  Amityhall_TomatoGDDCRO_ClayLoam_S1_riegoIRR.PRM
  Tot(17)        1        5     2006    220.8    438.2   1503.6   381.90    284.5    180.9     39.9     33.9      0.0    188.6       85    257.8    257.4      100     0.000     0.000     0.000     0.000       72        0        0        0        0        0        0     8.455      100     55.7    4.710     1.06       13        7     2006  Amityhall_TomatoGDDCRO_ClayLoam_S1_riegoIRR.PRM
  Tot(18)        1        5     2007    234.8    417.9   1504.1   383.79    244.6    199.7     35.1     16.4      0.0    177.9       93    264.9    264.8      100     0.000     0.000     0.000     0.000       72        0        0        0        0        0        0     8.493      100     55.7    4.731     1.07       13        7     2007  Amityhall_TomatoGDDCRO_ClayLoam_S1_riegoIRR.PRM
  Tot(19)        1        5     2008    121.5    440.3   1513.5   385.60    321.7    111.7      9.8      0.0      0.0    185.7       85    262.6    262.6      100     0.000     0.000     0.000     0.000       73        0        0        0        0        0        0     8.656      100     55.7    4.822     1.08       14        7     2008  Amityhall_TomatoGDDCRO_ClayLoam_S1_riegoIRR.PRM
  Tot(20)        1        5     2009    247.7    420.1   1542.4   387.43    212.3    222.5     25.2     10.8      0.0    184.6       91    254.7    255.2      100     0.000     0.000     0.000     0.000       75        0        0        0        0        0        0     8.953      100     57.7    5.163     1.18       16        7     2009  Amityhall_TomatoGDDCRO_ClayLoam_S1_riegoIRR.PRM
  Tot(21)        1        5     2010    363.7    401.7   1515.0   389.90    170.0    266.4     97.3     36.9      0.0    179.0       89    236.4    236.7      100     0.000     0.000     0.000     0.000       72        0        0        0        0        0        0     8.624      100     55.7    4.804     1.16       13        7     2010  Amityhall_TomatoGDDCRO_ClayLoam_S1_riegoIRR.PRM
  Tot(22)        1        5     2011    373.4    407.4   1510.3   391.65    199.5    273.9     99.5     73.5      0.0    182.1       86    233.6    233.5      100     0.000     0.000     0.000     0.000       73        0        0        0        0        0        0     8.750      100     55.7    4.874     1.17       14        7     2011  Amityhall_TomatoGDDCRO_ClayLoam_S1_riegoIRR.PRM
  Tot(23)        1        5     2012    178.2    434.2   1500.0   393.85    280.9    159.7     18.5      1.3      0.0    185.0       89    265.7    265.2      100     0.000     0.000     0.000     0.000       72        0        0        0        0        0        0     8.654      100     55.7    4.821     1.07       13        7     2012  Amityhall_TomatoGDDCRO_ClayLoam_S1_riegoIRR.PRM
  Tot(24)        1        5     2013    186.5    418.4   1515.6   396.52    244.0    174.1     12.4      0.0      0.0    184.4       89    249.0    249.3      100     0.000     0.000     0.000     0.000       73        0        0        0        0        0        0     8.852      100     57.5    5.092     1.17       14        7     2013  Amityhall_TomatoGDDCRO_ClayLoam_S1_riegoIRR.PRM
  Tot(25)        1        5     2014    139.0    431.6   1515.2   398.65    309.5    127.4     11.6      2.3      0.0    188.9       91    261.8    262.4      100     0.000     0.000     0.000     0.000       73        0        0        0        0        0        0     8.887      100     57.5    5.113     1.13       14        7     2014  Amityhall_TomatoGDDCRO_ClayLoam_S1_riegoIRR.PRM
  Tot(26)        1        5     2015    145.2    429.4   1516.8   400.83    295.1    130.7     14.5      0.0      0.0    188.4       88    254.4    255.7      100     0.000     0.000     0.000     0.000       73        0        0        0        0        0        0     8.943      100     57.5    5.145     1.16       14        7     2015  Amityhall_TomatoGDDCRO_ClayLoam_S1_riegoIRR.PRM
  Tot(27)        1        5     2016    214.5    425.7   1510.7   404.21    237.4    193.6     20.9      2.1      0.0    188.3       91    255.9    253.8      100     0.000     0.000     0.000     0.000       72        0        0        0        0        0        0     8.858      100     55.7    4.935     1.11       13        7     2016  Amityhall_TomatoGDDCRO_ClayLoam_S1_riegoIRR.PRM
  Tot(28)        1        5     2017    352.7    390.5   1516.1   406.21    237.2    224.3    128.4     68.1      0.0    167.4       91    241.2    241.2      100     0.000     0.000     0.000     0.000       73        0        0        0        0        0        0     9.015      100     57.5    5.186     1.27       14        7     2017  Amityhall_TomatoGDDCRO_ClayLoam_S1_riegoIRR.PRM
  Tot(29)        1        5     2018    220.7    400.7   1526.7   408.21    234.0    193.0     27.7     19.5      0.0    174.4       93    248.6    248.8      100     0.000     0.000     0.000     0.000       74        0        0        0        0        0        0     9.193      100     55.9    5.138     1.21       15        7     2018  Amityhall_TomatoGDDCRO_ClayLoam_S1_riegoIRR.PRM
