AquaCrop 6.0 (March 2017) - Output created on (date) : 3/5/2021   at (time) : 3:53:55 PM

    RunNr     Day1   Month1    Year1     Rain      ETo       GD     CO2      Irri   Infilt   Runoff    Drain   Upflow        E     E/Ex       Tr      TrW   Tr/Trx    SaltIn   SaltOut    SaltUp  SaltProf     Cycle   SaltStr  FertStr  WeedStr  TempStr   ExpStr   StoStr  BioMass  Brelative   HI     Yield     WPet     DayN   MonthN    YearN
                                           mm       mm    °C.day    ppm        mm       mm       mm       mm       mm       mm        %       mm       mm        %    ton/ha    ton/ha    ton/ha    ton/ha      days       %        %        %        %        %        %    ton/ha        %       %    ton/ha    kg/m3
   Tot(1)       31        5     1990    120.0    588.8   1685.4   354.39    400.7    119.1      0.9      8.8      0.0    227.2       72    312.8    308.0      100     0.000     0.000     0.000     0.000       91        0        0        0        0        0        0     7.278      100     25.0    1.819     0.34        4        9     1990  Amityhall_GroundnutGDDCRO_Loam_S1_riegoIRR.PRM
   Tot(2)       31        5     1991     66.2    573.6   1678.6   355.61    441.2     66.2      0.0      0.0      0.0    235.5       75    301.0    301.2      100     0.000     0.000     0.000     0.000       91        0        0        0        0        0        0     7.279      100     25.0    1.820     0.34        4        9     1991  Amityhall_GroundnutGDDCRO_Loam_S1_riegoIRR.PRM
   Tot(3)       31        5     1992     99.0    586.5   1689.8   356.45    428.2     98.9      0.1      0.0      0.0    241.6       77    312.0    313.2      100     0.000     0.000     0.000     0.000       91        0        0        0        0        0        0     7.331      100     25.0    1.833     0.33        4        9     1992  Amityhall_GroundnutGDDCRO_Loam_S1_riegoIRR.PRM
   Tot(4)       31        5     1993    138.5    570.5   1694.1   356.10    403.8    137.7      0.8     14.6      0.0    249.2       82    306.8    305.5      100     0.000     0.000     0.000     0.000       92        0        0        0        0        0        0     7.395      100     25.0    1.849     0.33        5        9     1993  Amityhall_GroundnutGDDCRO_Loam_S1_riegoIRR.PRM
   Tot(5)       31        5     1994     93.9    626.8   1675.2   358.83    451.2     93.9      0.0      0.0      0.0    252.9       72    321.3    321.3      100     0.000     0.000     0.000     0.000       90        0        0        0        0        0        0     7.276      100     25.0    1.819     0.32        3        9     1994  Amityhall_GroundnutGDDCRO_Loam_S1_riegoIRR.PRM
   Tot(6)       31        5     1995    201.4    563.3   1662.7   360.82    318.6    201.2      0.2      0.0      0.0    258.8       83    289.9    289.4      100     0.000     0.000     0.000     0.000       89        0        0        0        0        0        0     7.209      100     25.0    1.802     0.33        2        9     1995  Amityhall_GroundnutGDDCRO_Loam_S1_riegoIRR.PRM
   Tot(7)       31        5     1996    135.8    582.1   1668.9   362.61    379.8    135.8      0.0      0.0      0.0    249.7       76    295.0    295.3      100     0.000     0.000     0.000     0.000       90        0        0        0        0        0        0     7.338      100     25.0    1.835     0.34        3        9     1996  Amityhall_GroundnutGDDCRO_Loam_S1_riegoIRR.PRM
   Tot(8)       31        5     1997    222.2    542.4   1697.1   363.73    336.7    211.7     10.5     51.8      0.0    237.6       82    288.7    289.5      100     0.000     0.000     0.000     0.000       92        0        0        0        0        0        0     7.536      100     25.0    1.884     0.36        5        9     1997  Amityhall_GroundnutGDDCRO_Loam_S1_riegoIRR.PRM
   Tot(9)       31        5     1998    213.9    558.3   1648.5   366.70    310.4    206.6      7.3     12.0      0.0    244.4       77    282.8    281.4      100     0.000     0.000     0.000     0.000       88        0        0        0        0        0        0     7.163      100     25.0    1.791     0.34       31        8     1998  Amityhall_GroundnutGDDCRO_Loam_S1_riegoIRR.PRM
  Tot(10)       31        5     1999    229.9    558.2   1682.6   368.38    291.4    228.9      1.0      4.3      0.0    255.2       83    290.1    291.3      100     0.000     0.000     0.000     0.000       91        0        0        0        0        0        0     7.532      100     25.0    1.883     0.35        4        9     1999  Amityhall_GroundnutGDDCRO_Loam_S1_riegoIRR.PRM
  Tot(11)       31        5     2000    263.7    572.7   1693.2   369.55    315.0    254.4      9.3     28.9      0.0    255.0       81    298.6    299.0      100     0.000     0.000     0.000     0.000       92        0        0        0        0        0        0     7.671      100     25.0    1.918     0.35        5        9     2000  Amityhall_GroundnutGDDCRO_Loam_S1_riegoIRR.PRM
  Tot(12)       31        5     2001    101.9    587.4   1670.7   371.14    409.0    101.9      0.0      0.0      0.0    240.9       73    299.2    298.5      100     0.000     0.000     0.000     0.000       90        0        0        0        0        0        0     7.452      100     25.0    1.863     0.34        3        9     2001  Amityhall_GroundnutGDDCRO_Loam_S1_riegoIRR.PRM
  Tot(13)       31        5     2002    200.9    544.1   1687.3   373.28    360.6    195.7      5.2     57.0      0.0    238.1       82    290.7    291.0      100     0.000     0.000     0.000     0.000       92        0        0        0        0        0        0     7.663      100     25.0    1.916     0.36        5        9     2002  Amityhall_GroundnutGDDCRO_Loam_S1_riegoIRR.PRM
  Tot(14)       31        5     2003    246.4    568.0   1686.7   375.80    292.4    239.1      7.3     17.4      0.0    249.0       80    294.4    294.2      100     0.000     0.000     0.000     0.000       91        0        0        0        0        0        0     7.680      100     25.0    1.920     0.35        4        9     2003  Amityhall_GroundnutGDDCRO_Loam_S1_riegoIRR.PRM
  Tot(15)       31        5     2004    150.6    590.3   1676.2   377.52    371.7    146.4      4.2      0.0      0.0    242.2       74    305.0    304.8      100     0.000     0.000     0.000     0.000       90        0        0        0        0        0        0     7.609      100     25.0    1.902     0.35        3        9     2004  Amityhall_GroundnutGDDCRO_Loam_S1_riegoIRR.PRM
  Tot(16)       31        5     2005    637.8    496.2   1700.3   379.80    177.5    533.0    104.8    249.6      0.0    226.9       85    263.6    264.4      100     0.000     0.000     0.000     0.000       92        0        0        0        0        0        0     7.774      100     25.0    1.944     0.40        4        9     2005  Amityhall_GroundnutGDDCRO_Loam_S1_riegoIRR.PRM
  Tot(17)       31        5     2006    297.1    541.8   1676.0   381.90    286.1    288.8      8.3     68.4      0.0    249.2       85    286.6    285.9      100     0.000     0.000     0.000     0.000       90        0        0        0        0        0        0     7.692      100     25.0    1.923     0.36        3        9     2006  Amityhall_GroundnutGDDCRO_Loam_S1_riegoIRR.PRM
  Tot(18)       31        5     2007    242.4    550.4   1675.7   383.79    276.7    234.6      7.8     24.2      0.0    234.4       77    282.2    282.6      100     0.000     0.000     0.000     0.000       90        0        0        0        0        0        0     7.724      100     25.0    1.931     0.37        3        9     2007  Amityhall_GroundnutGDDCRO_Loam_S1_riegoIRR.PRM
  Tot(19)       31        5     2008    496.8    542.5   1685.6   385.60    261.6    382.8    114.0    126.8      0.0    245.0       82    279.3    279.6      100     0.000     0.000     0.000     0.000       91        0        0        0        0        0        0     7.831      100     25.0    1.958     0.37        4        9     2008  Amityhall_GroundnutGDDCRO_Loam_S1_riegoIRR.PRM
  Tot(20)       31        5     2009    210.1    549.5   1684.5   387.43    302.5    201.4      8.7      3.9      0.0    234.0       80    294.9    294.0      100     0.000     0.000     0.000     0.000       91        0        0        0        0        0        0     7.830      100     25.0    1.957     0.37        4        9     2009  Amityhall_GroundnutGDDCRO_Loam_S1_riegoIRR.PRM
  Tot(21)       31        5     2010    393.5    496.5   1684.5   389.90    125.9    387.5      6.0     50.2      0.0    236.3       86    255.6    256.2      100     0.000     0.000     0.000     0.000       91        0        0        0        0        0        0     7.853      100     25.0    1.963     0.40        3        9     2010  Amityhall_GroundnutGDDCRO_Loam_S1_riegoIRR.PRM
  Tot(22)       31        5     2011    528.1    509.6   1702.4   391.65    150.9    486.0     42.1    153.3      0.0    234.1       87    272.1    272.3      100     0.000     0.000     0.000     0.000       92        0        0        0        0        0        0     8.032      100     25.0    2.008     0.40        5        9     2011  Amityhall_GroundnutGDDCRO_Loam_S1_riegoIRR.PRM
  Tot(23)       31        5     2012    305.7    549.4   1672.1   393.85    225.9    292.7     13.0     40.9      0.0    227.5       74    279.2    278.5      100     0.000     0.000     0.000     0.000       90        0        0        0        0        0        0     7.874      100     25.0    1.968     0.39        3        9     2012  Amityhall_GroundnutGDDCRO_Loam_S1_riegoIRR.PRM
  Tot(24)       31        5     2013    227.6    531.3   1684.4   396.52    261.7    224.9      2.7      1.6      0.0    237.8       82    276.5    276.9      100     0.000     0.000     0.000     0.000       91        0        0        0        0        0        0     8.030      100     25.0    2.007     0.39        4        9     2013  Amityhall_GroundnutGDDCRO_Loam_S1_riegoIRR.PRM
  Tot(25)       31        5     2014    183.8    548.8   1671.5   398.65    344.5    174.6      9.2     10.4      0.0    236.7       79    284.7    284.8      100     0.000     0.000     0.000     0.000       90        0        0        0        0        0        0     7.927      100     25.0    1.982     0.38        3        9     2014  Amityhall_GroundnutGDDCRO_Loam_S1_riegoIRR.PRM
  Tot(26)       31        5     2015    167.7    551.2   1672.0   400.83    366.6    164.7      3.0     23.1      0.0    245.5       83    292.0    291.9      100     0.000     0.000     0.000     0.000       90        0        0        0        0        0        0     7.961      100     25.0    1.990     0.37        3        9     2015  Amityhall_GroundnutGDDCRO_Loam_S1_riegoIRR.PRM
  Tot(27)       31        5     2016    282.2    530.0   1667.7   404.21    258.4    275.5      6.7     29.0      0.0    250.5       86    273.3    273.0      100     0.000     0.000     0.000     0.000       89        0        0        0        0        0        0     7.930      100     25.0    1.982     0.38        2        9     2016  Amityhall_GroundnutGDDCRO_Loam_S1_riegoIRR.PRM
  Tot(28)       31        5     2017    271.4    520.1   1676.3   406.21    273.1    233.7     37.7     55.1      0.0    210.2       74    270.8    271.1      100     0.000     0.000     0.000     0.000       90        0        0        0        0        0        0     8.047      100     25.0    2.012     0.42        3        9     2017  Amityhall_GroundnutGDDCRO_Loam_S1_riegoIRR.PRM
  Tot(29)       31        5     2018    131.9    546.6   1682.8   408.21    360.6    131.5      0.4      0.0      0.0    231.6       80    290.0    290.2      100     0.000     0.000     0.000     0.000       91        0        0        0        0        0        0     8.155      100     25.0    2.039     0.39        4        9     2018  Amityhall_GroundnutGDDCRO_Loam_S1_riegoIRR.PRM
