AquaCrop 6.0 (March 2017) - Output created on (date) : 3/5/2021   at (time) : 4:01:40 PM

    RunNr     Day1   Month1    Year1     Rain      ETo       GD     CO2      Irri   Infilt   Runoff    Drain   Upflow        E     E/Ex       Tr      TrW   Tr/Trx    SaltIn   SaltOut    SaltUp  SaltProf     Cycle   SaltStr  FertStr  WeedStr  TempStr   ExpStr   StoStr  BioMass  Brelative   HI     Yield     WPet     DayN   MonthN    YearN
                                           mm       mm    °C.day    ppm        mm       mm       mm       mm       mm       mm        %       mm       mm        %    ton/ha    ton/ha    ton/ha    ton/ha      days       %        %        %        %        %        %    ton/ha        %       %    ton/ha    kg/m3
   Tot(1)        1       10     1990    266.7    480.7   1295.0   355.00      0.0    263.3      3.4      0.0      0.0     83.9       57    365.8    365.8      100     0.000     0.000     0.000     0.000      101        0        0        0        0        0        0    16.276      100     53.6    8.724     1.94       15        1     1991  Amityhall_SweetPotatoGDDCRO_ClayLoam_S2_rainfed.PRM
   Tot(2)        1       10     1991    133.4    514.5   1296.8   356.03      0.0    131.2      2.2      0.0      0.0     83.7       52    288.0    288.0       74     0.000     0.000     0.000     0.000      102        0        0        0        0        4       21    11.968       73     45.8    5.483     1.48       17        1     1992  Amityhall_SweetPotatoGDDCRO_ClayLoam_S2_rainfed.PRM
   Tot(3)        1       10     1992     75.0    523.1   1294.1   356.27      0.0     75.0      0.0      0.0      0.0     81.5       46    224.3    223.3       59     0.000     0.000     0.000     0.000       99        0        0        0        0       60       34     8.724       55     40.2    3.509     1.15       12        1     1993  Amityhall_SweetPotatoGDDCRO_ClayLoam_S2_rainfed.PRM
   Tot(4)        1       10     1993    191.1    507.4   1295.5   357.47      0.0    178.6     12.5      0.0      0.0     88.3       54    312.4    313.5       82     0.000     0.000     0.000     0.000      100        0        0        0        0       25       15    13.039       81     49.0    6.390     1.60       15        1     1994  Amityhall_SweetPotatoGDDCRO_ClayLoam_S2_rainfed.PRM
   Tot(5)        1       10     1994    189.2    512.7   1299.0   359.82      0.0    178.1     11.1      0.0      0.0     87.6       56    320.8    320.8       82     0.000     0.000     0.000     0.000      101        0        0        0        0        2       15    13.484       83     48.7    6.569     1.61       15        1     1995  Amityhall_SweetPotatoGDDCRO_ClayLoam_S2_rainfed.PRM
   Tot(6)        1       10     1995    224.4    492.4   1294.2   361.72      0.0    201.1     23.3     40.6      0.0    120.7       78    269.7    267.6       72     0.000     0.000     0.000     0.000       99        0        0        0        0       57       23    11.214       70     46.0    5.163     1.32       13        1     1996  Amityhall_SweetPotatoGDDCRO_ClayLoam_S2_rainfed.PRM
   Tot(7)        1       10     1996    252.2    518.2   1297.0   363.17      0.0    234.5     17.7      0.0      0.0    107.6       74    357.2    359.3       87     0.000     0.000     0.000     0.000      105        0        0        0        0        5       10    15.132       88     50.5    7.637     1.64       19        1     1997  Amityhall_SweetPotatoGDDCRO_ClayLoam_S2_rainfed.PRM
   Tot(8)        1       10     1997    222.5    492.9   1295.1   365.22      0.0    204.4     18.1     24.1      0.0    116.4       77    295.3    295.3       79     0.000     0.000     0.000     0.000       98        0        0        0        0        5       17    12.506       78     47.6    5.957     1.45       13        1     1998  Amityhall_SweetPotatoGDDCRO_ClayLoam_S2_rainfed.PRM
   Tot(9)        1       10     1998    421.8    472.2   1296.4   367.54      0.0    346.0     75.8     49.8      0.0     91.3       65    366.6    366.6      100     0.000     0.000     0.000     0.000      101        0        0        0        0        0        0    16.780      100     53.7    9.017     1.97       15        1     1999  Amityhall_SweetPotatoGDDCRO_ClayLoam_S2_rainfed.PRM
  Tot(10)        1       10     1999    392.9    510.6   1294.6   368.97      0.0    338.9     54.0     80.5      0.0    126.4       94    360.0    360.0       88     0.000     0.000     0.000     0.000      111        0        0        0        0        0       10    16.579       90     50.6    8.383     1.73       25        1     2000  Amityhall_SweetPotatoGDDCRO_ClayLoam_S2_rainfed.PRM
  Tot(11)        1       10     2000    370.5    493.0   1294.3   370.35      0.0    310.1     60.4      6.4      0.0     88.2       57    365.7    361.3       97     0.000     0.000     0.000     0.000      105        0        0        0        0       28        2    17.061       97     53.2    9.082     2.00       19        1     2001  Amityhall_SweetPotatoGDDCRO_ClayLoam_S2_rainfed.PRM
  Tot(12)        1       10     2001    455.1    474.6   1301.5   372.21      0.0    386.4     68.7     65.0      0.0    114.8       79    363.2    367.6      100     0.000     0.000     0.000     0.000      103        0        0        0        0        0        0    17.447      100     53.8    9.393     1.97       17        1     2002  Amityhall_SweetPotatoGDDCRO_ClayLoam_S2_rainfed.PRM
  Tot(13)        1       10     2002    205.1    482.5   1295.7   374.54      0.0    192.1     13.0     15.6      0.0    100.6       68    297.7    297.7       81     0.000     0.000     0.000     0.000       98        0        0        0        0       17       15    13.161       80     48.9    6.437     1.62       13        1     2003  Amityhall_SweetPotatoGDDCRO_ClayLoam_S2_rainfed.PRM
  Tot(14)        1       10     2003    291.2    499.0   1301.8   376.66      0.0    284.2      7.0      2.2      0.0    102.1       71    381.7    381.7       98     0.000     0.000     0.000     0.000       99        0        0        0        0        0        2    16.416       99     53.4    8.761     1.81       13        1     2004  Amityhall_SweetPotatoGDDCRO_ClayLoam_S2_rainfed.PRM
  Tot(15)        1       10     2004    141.3    544.0   1304.9   378.66      0.0    139.4      1.9      2.6      0.0     85.4       51    276.7    276.7       67     0.000     0.000     0.000     0.000      100        0        0        0        0       56       27    11.005       65     44.1    4.854     1.35       14        1     2005  Amityhall_SweetPotatoGDDCRO_ClayLoam_S2_rainfed.PRM
  Tot(16)        1       10     2005    709.8    451.0   1299.1   380.85      0.0    505.7    204.1    206.3      0.0    115.5       97    362.5    362.5      100     0.000     0.000     0.000     0.000      103        0        0        0        0        0        0    17.543      100     53.8    9.436     1.98       18        1     2006  Amityhall_SweetPotatoGDDCRO_ClayLoam_S2_rainfed.PRM
  Tot(17)        1       10     2006    208.1    489.6   1304.2   382.85      0.0    202.0      6.1      0.0      0.0     79.0       52    344.0    344.0       92     0.000     0.000     0.000     0.000       95        0        0        0        0        1        6    15.267       94     52.1    7.961     1.88        9        1     2007  Amityhall_SweetPotatoGDDCRO_ClayLoam_S2_rainfed.PRM
  Tot(18)        1       10     2007    615.8    468.8   1298.7   384.70      0.0    445.9    169.9    182.8      0.0    118.3       95    358.6    358.6       96     0.000     0.000     0.000     0.000      104        0        0        0        0        0        4    17.114       96     53.0    9.063     1.90       19        1     2008  Amityhall_SweetPotatoGDDCRO_ClayLoam_S2_rainfed.PRM
  Tot(19)        1       10     2008    265.9    487.4   1302.9   386.51      0.0    239.7     26.2     23.7      0.0    112.3       79    332.9    332.9       88     0.000     0.000     0.000     0.000      103        0        0        0        0        0       10    15.853       89     50.6    8.025     1.81       18        1     2009  Amityhall_SweetPotatoGDDCRO_ClayLoam_S2_rainfed.PRM
  Tot(20)        1       10     2009    249.9    482.5   1301.4   388.66      0.0    221.0     28.9      0.0      0.0    115.4       79    310.7    310.7       84     0.000     0.000     0.000     0.000       98        0        0        0        0        2       12    14.415       85     50.4    7.268     1.71       12        1     2010  Amityhall_SweetPotatoGDDCRO_ClayLoam_S2_rainfed.PRM
  Tot(21)        1       10     2010    297.1    496.0   1299.4   390.77      0.0    278.4     18.7     24.7      0.0    123.6       91    354.1    354.1       90     0.000     0.000     0.000     0.000      109        0        0        0        0        0        8    17.401       90     51.5    8.964     1.88       24        1     2011  Amityhall_SweetPotatoGDDCRO_ClayLoam_S2_rainfed.PRM
  Tot(22)        1       10     2011    208.1    498.0   1296.9   392.75      0.0    198.3      9.8     13.6      0.0    128.7       92    293.7    293.7       75     0.000     0.000     0.000     0.000      100        0        0        0        0        0       21    12.977       75     46.1    5.982     1.42       14        1     2012  Amityhall_SweetPotatoGDDCRO_ClayLoam_S2_rainfed.PRM
  Tot(23)        1       10     2012    277.9    494.7   1299.4   395.19      0.0    217.4     60.5     44.9      0.0     99.8       68    308.8    308.8       81     0.000     0.000     0.000     0.000      100        0        0        0        0        1       15    14.462       82     48.4    7.006     1.72       15        1     2013  Amityhall_SweetPotatoGDDCRO_ClayLoam_S2_rainfed.PRM
  Tot(24)        1       10     2013    139.2    481.3   1306.2   397.58      0.0    138.5      0.7      1.3      0.0     82.8       59    289.0    289.0       78     0.000     0.000     0.000     0.000       97        0        0        0        0        1       18    13.389       79     47.4    6.342     1.71       11        1     2014  Amityhall_SweetPotatoGDDCRO_ClayLoam_S2_rainfed.PRM
  Tot(25)        1       10     2014    197.7    482.6   1298.0   399.74      0.0    196.4      1.3      0.0      0.0     85.0       57    334.1    335.4       91     0.000     0.000     0.000     0.000       98        0        0        0        0        3        7    15.999       93     51.8    8.290     1.98       12        1     2015  Amityhall_SweetPotatoGDDCRO_ClayLoam_S2_rainfed.PRM
  Tot(26)        1       10     2015    272.3    460.6   1300.5   402.52      0.0    269.5      2.8      1.6      0.0    121.7       88    346.5    346.5       98     0.000     0.000     0.000     0.000       96        0        0        0        0        0        2    16.915       99     53.5    9.041     1.93       10        1     2016  Amityhall_SweetPotatoGDDCRO_ClayLoam_S2_rainfed.PRM
  Tot(27)        1       10     2016    308.3    456.5   1299.9   405.21      0.0    296.6     11.7     10.5      0.0    121.5       92    350.7    350.7       99     0.000     0.000     0.000     0.000       98        0        0        0        0        0        0    17.543      100     53.7    9.425     2.00       12        1     2017  Amityhall_SweetPotatoGDDCRO_ClayLoam_S2_rainfed.PRM
  Tot(28)        1       10     2017    602.5    419.9   1294.6   407.21      0.0    521.9     80.6     89.1      0.0    119.9       93    318.9    318.9      100     0.000     0.000     0.000     0.000      100        0        0        0        0        0        0    18.143      100     53.7    9.749     2.23       14        1     2018  Amityhall_SweetPotatoGDDCRO_ClayLoam_S2_rainfed.PRM
  Tot(29)        1       10     2018    172.4    479.5   1295.5   409.21      0.0    150.5     21.9     28.2      0.0    111.6       75    246.5    246.5       69     0.000     0.000     0.000     0.000       98        0        0        0        0       52       25    11.751       67     44.5    5.224     1.46       13        1     2019  Amityhall_SweetPotatoGDDCRO_ClayLoam_S2_rainfed.PRM
