AquaCrop 6.0 (March 2017) - Output created on (date) : 3/5/2021   at (time) : 4:14:36 PM

    RunNr     Day1   Month1    Year1     Rain      ETo       GD     CO2      Irri   Infilt   Runoff    Drain   Upflow        E     E/Ex       Tr      TrW   Tr/Trx    SaltIn   SaltOut    SaltUp  SaltProf     Cycle   SaltStr  FertStr  WeedStr  TempStr   ExpStr   StoStr  BioMass  Brelative   HI     Yield     WPet     DayN   MonthN    YearN
                                           mm       mm    °C.day    ppm        mm       mm       mm       mm       mm       mm        %       mm       mm        %    ton/ha    ton/ha    ton/ha    ton/ha      days       %        %        %        %        %        %    ton/ha        %       %    ton/ha    kg/m3
   Tot(1)       31       10     1990    190.9    345.0   1543.9   355.00    197.8    190.2      0.7     30.5      0.0    145.9       95    223.8    219.8      100     0.000     0.000     0.000     0.000       77        0        0        0        0        0        0     8.628      100     57.9    4.996     1.35       17        1     1991  Amityhall_TomatoGDDCRO_SandyLoam_S2_riegoIRR.PRM
   Tot(2)       31       10     1991     87.8    365.2   1537.9   356.03    299.6     86.1      1.7     25.2      0.0    144.2       84    227.9    227.3      100     0.000     0.000     0.000     0.000       77        0        0        0        0        0        0     8.668      100     57.9    5.019     1.35       17        1     1992  Amityhall_TomatoGDDCRO_SandyLoam_S2_riegoIRR.PRM
   Tot(3)       31       10     1992     44.2    386.1   1525.0   356.27    329.9     44.2      0.0      0.0      0.0    146.0       80    240.2    240.8      100     0.000     0.000     0.000     0.000       75        0        0        0        0        0        0     8.397      100     57.8    4.853     1.26       15        1     1993  Amityhall_TomatoGDDCRO_SandyLoam_S2_riegoIRR.PRM
   Tot(4)       31       10     1993    150.4    366.1   1547.5   357.47    251.8    144.2      6.2     40.3      0.0    144.6       82    222.7    222.7      100     0.000     0.000     0.000     0.000       77        0        0        0        0        0        0     8.714      100     57.9    5.046     1.37       17        1     1994  Amityhall_TomatoGDDCRO_SandyLoam_S2_riegoIRR.PRM
   Tot(5)       31       10     1994    143.5    368.0   1549.8   359.82    280.5    138.2      5.3     44.7      0.0    148.5       91    237.7    237.8      100     0.000     0.000     0.000     0.000       77        0        0        0        0        0        0     8.724      100     57.9    5.052     1.31       17        1     1995  Amityhall_TomatoGDDCRO_SandyLoam_S2_riegoIRR.PRM
   Tot(6)       31       10     1995     80.2    370.4   1542.3   361.72    285.6     80.2      0.0      0.0      0.0    146.5       84    230.9    230.1      100     0.000     0.000     0.000     0.000       76        0        0        0        0        0        0     8.648      100     59.5    5.148     1.36       16        1     1996  Amityhall_TomatoGDDCRO_SandyLoam_S2_riegoIRR.PRM
   Tot(7)       31       10     1996    175.0    374.5   1557.3   363.17    277.1    169.3      5.7     71.1      0.0    148.2       90    241.4    246.1      100     0.000     0.000     0.000     0.000       78        0        0        0        0        0        0     8.966      100     59.7    5.350     1.38       19        1     1997  Amityhall_TomatoGDDCRO_SandyLoam_S2_riegoIRR.PRM
   Tot(8)       31       10     1997    102.6    360.3   1530.3   365.22    262.7    101.7      0.9      4.0      0.0    146.6       87    225.8    221.7      100     0.000     0.000     0.000     0.000       75        0        0        0        0        0        0     8.606      100     57.8    4.973     1.34       15        1     1998  Amityhall_TomatoGDDCRO_SandyLoam_S2_riegoIRR.PRM
   Tot(9)       31       10     1998    250.0    349.8   1554.8   367.54    211.5    217.8     32.2     80.8      0.0    147.1       90    215.7    219.9      100     0.000     0.000     0.000     0.000       76        0        0        0        0        0        0     8.804      100     61.0    5.370     1.49       17        1     1999  Amityhall_TomatoGDDCRO_SandyLoam_S2_riegoIRR.PRM
  Tot(10)       31       10     1999    166.8    373.2   1563.5   368.97    275.3    163.0      3.8     65.7      0.0    144.8       89    242.2    242.2      100     0.000     0.000     0.000     0.000       81        0        0        0        0        0        0     9.492      100     61.0    5.790     1.51       22        1     2000  Amityhall_TomatoGDDCRO_SandyLoam_S2_riegoIRR.PRM
  Tot(11)       31       10     2000    296.9    347.4   1555.0   370.35    174.2    274.7     22.2    116.8      0.0    144.7       82    201.8    201.8      100     0.000     0.000     0.000     0.000       78        0        0        0        0        0        0     9.107      100     59.7    5.435     1.58       19        1     2001  Amityhall_TomatoGDDCRO_SandyLoam_S2_riegoIRR.PRM
  Tot(12)       31       10     2001    309.6    335.8   1554.9   372.21    172.0    287.5     22.1    121.6      0.0    143.8       92    208.6    208.6      100     0.000     0.000     0.000     0.000       77        0        0        0        0        0        0     8.953      100     61.0    5.461     1.56       18        1     2002  Amityhall_TomatoGDDCRO_SandyLoam_S2_riegoIRR.PRM
  Tot(13)       31       10     2002    106.3    353.9   1534.1   374.54    245.2    105.8      0.5      1.4      0.0    141.6       85    219.9    215.7      100     0.000     0.000     0.000     0.000       75        0        0        0        0        0        0     8.787      100     57.8    5.078     1.40       15        1     2003  Amityhall_TomatoGDDCRO_SandyLoam_S2_riegoIRR.PRM
  Tot(14)       31       10     2003    214.3    369.7   1534.8   376.66    202.2    208.8      5.5     40.0      0.0    152.8       88    230.7    231.3      100     0.000     0.000     0.000     0.000       76        0        0        0        0        0        0     9.006      100     57.9    5.215     1.36       16        1     2004  Amityhall_TomatoGDDCRO_SandyLoam_S2_riegoIRR.PRM
  Tot(15)       31       10     2004    107.0    392.8   1528.7   378.66    277.7    106.7      0.3      0.0      0.0    160.8       83    235.6    235.9      100     0.000     0.000     0.000     0.000       76        0        0        0        0        0        0     9.005      100     56.2    5.061     1.28       16        1     2005  Amityhall_TomatoGDDCRO_SandyLoam_S2_riegoIRR.PRM
  Tot(16)       31       10     2005    181.1    344.6   1556.2   380.85    182.5    177.9      3.2     21.0      0.0    146.0       88    208.1    211.3      100     0.000     0.000     0.000     0.000       77        0        0        0        0        0        0     9.230      100     59.6    5.501     1.56       18        1     2006  Amityhall_TomatoGDDCRO_SandyLoam_S2_riegoIRR.PRM
  Tot(17)       31       10     2006    142.6    362.0   1524.9   382.85    261.7    137.8      4.8     36.9      0.0    145.3       88    229.1    224.8      100     0.000     0.000     0.000     0.000       74        0        0        0        0        0        0     8.787      100     57.7    5.067     1.35       14        1     2007  Amityhall_TomatoGDDCRO_SandyLoam_S2_riegoIRR.PRM
  Tot(18)       31       10     2007    286.0    348.2   1553.4   384.70    237.8    245.7     40.3    131.1      0.0    145.9       93    221.1    225.4      100     0.000     0.000     0.000     0.000       77        0        0        0        0        0        0     9.264      100     59.6    5.522     1.51       18        1     2008  Amityhall_TomatoGDDCRO_SandyLoam_S2_riegoIRR.PRM
  Tot(19)       31       10     2008    161.8    351.4   1551.9   386.51    260.5    154.8      7.0     61.7      0.0    144.1       92    223.6    223.6      100     0.000     0.000     0.000     0.000       77        0        0        0        0        0        0     9.287      100     59.6    5.535     1.52       18        1     2009  Amityhall_TomatoGDDCRO_SandyLoam_S2_riegoIRR.PRM
  Tot(20)       31       10     2009    158.1    348.8   1514.3   388.66    261.8    143.1     15.0     63.5      0.0    140.5       84    213.0    209.0      100     0.000     0.000     0.000     0.000       75        0        0        0        0        0        0     9.058      100     57.8    5.235     1.48       15        1     2010  Amityhall_TomatoGDDCRO_SandyLoam_S2_riegoIRR.PRM
  Tot(21)       31       10     2010    145.0    357.9   1566.1   390.77    252.6    140.3      4.7     39.6      0.0    144.2       87    222.4    226.4      100     0.000     0.000     0.000     0.000       81        0        0        0        0        0        0     9.961      100     59.8    5.958     1.63       22        1     2011  Amityhall_TomatoGDDCRO_SandyLoam_S2_riegoIRR.PRM
  Tot(22)       31       10     2011     53.6    372.4   1534.5   392.75    313.6     53.6      0.0      0.0      0.0    147.8       85    231.2    226.9      100     0.000     0.000     0.000     0.000       76        0        0        0        0        0        0     9.285      100     57.8    5.366     1.42       16        1     2012  Amityhall_TomatoGDDCRO_SandyLoam_S2_riegoIRR.PRM
  Tot(23)       31       10     2012     83.7    361.0   1534.4   395.19    284.7     82.7      1.0      8.9      0.0    144.0       87    226.4    226.7      100     0.000     0.000     0.000     0.000       76        0        0        0        0        0        0     9.276      100     57.8    5.361     1.45       16        1     2013  Amityhall_TomatoGDDCRO_SandyLoam_S2_riegoIRR.PRM
  Tot(24)       31       10     2013     90.7    356.2   1519.7   397.58    273.2     89.8      0.9      8.4      0.0    143.3       87    223.5    223.8      100     0.000     0.000     0.000     0.000       74        0        0        0        0        0        0     9.074      100     57.7    5.233     1.43       14        1     2014  Amityhall_TomatoGDDCRO_SandyLoam_S2_riegoIRR.PRM
  Tot(25)       31       10     2014    138.4    346.9   1528.3   399.74    221.6    137.1      1.3     13.8      0.0    143.7       88    213.8    214.0      100     0.000     0.000     0.000     0.000       75        0        0        0        0        0        0     9.265      100     57.8    5.354     1.50       15        1     2015  Amityhall_TomatoGDDCRO_SandyLoam_S2_riegoIRR.PRM
  Tot(26)       31       10     2015    171.1    337.1   1541.9   402.52    181.5    170.4      0.7      7.5      0.0    148.0       94    208.9    209.0      100     0.000     0.000     0.000     0.000       75        0        0        0        0        0        0     9.333      100     59.4    5.548     1.55       15        1     2016  Amityhall_TomatoGDDCRO_SandyLoam_S2_riegoIRR.PRM
  Tot(27)       31       10     2016    160.2    342.9   1527.6   405.21    221.1    158.4      1.8     34.6      0.0    141.9       90    214.8    213.9      100     0.000     0.000     0.000     0.000       75        0        0        0        0        0        0     9.347      100     57.8    5.401     1.51       15        1     2017  Amityhall_TomatoGDDCRO_SandyLoam_S2_riegoIRR.PRM
  Tot(28)       31       10     2017    403.5    300.9   1554.8   407.21     97.9    387.1     16.4    167.7      0.0    132.2       95    185.6    190.0      100     0.000     0.000     0.000     0.000       76        0        0        0        0        0        0     9.543      100     61.0    5.821     1.84       17        1     2018  Amityhall_TomatoGDDCRO_SandyLoam_S2_riegoIRR.PRM
  Tot(29)       31       10     2018     48.1    354.7   1527.4   409.21    297.0     48.0      0.1      0.0      0.0    138.2       83    219.3    215.7      100     0.000     0.000     0.000     0.000       75        0        0        0        0        0        0     9.428      100     57.8    5.448     1.52       15        1     2019  Amityhall_TomatoGDDCRO_SandyLoam_S2_riegoIRR.PRM
