AquaCrop 6.0 (March 2017) - Output created on (date) : 3/5/2021   at (time) : 4:10:49 PM

    RunNr     Day1   Month1    Year1     Rain      ETo       GD     CO2      Irri   Infilt   Runoff    Drain   Upflow        E     E/Ex       Tr      TrW   Tr/Trx    SaltIn   SaltOut    SaltUp  SaltProf     Cycle   SaltStr  FertStr  WeedStr  TempStr   ExpStr   StoStr  BioMass  Brelative   HI     Yield     WPet     DayN   MonthN    YearN
                                           mm       mm    °C.day    ppm        mm       mm       mm       mm       mm       mm        %       mm       mm        %    ton/ha    ton/ha    ton/ha    ton/ha      days       %        %        %        %        %        %    ton/ha        %       %    ton/ha    kg/m3
   Tot(1)        1        5     1990    102.5    447.9   1516.3   354.39      0.0    102.5      0.0      0.0      0.0     95.2       31    116.6    115.9       64     0.000     0.000     0.000     0.000       73        0        0        0        0       54       23     3.542       44     52.1    1.846     0.87       14        7     1990  Amityhall_TomatoGDDCRO_Loam_S1_rainfed.PRM
   Tot(2)        1        5     1991    112.3    433.2   1529.3   355.61      0.0    111.4      0.9      7.0      0.0    103.4       41    114.8    115.3       56     0.000     0.000     0.000     0.000       74        0        0        0        0       52       34     3.480       43     47.3    1.646     0.75       15        7     1991  Amityhall_TomatoGDDCRO_Loam_S1_rainfed.PRM
   Tot(3)        1        5     1992    109.9    443.2   1529.3   356.45      0.0    109.9      0.0      0.0      0.0     96.9       37    126.2    126.0       58     0.000     0.000     0.000     0.000       74        0        0        0        0       48       29     3.886       48     48.6    1.888     0.85       15        7     1992  Amityhall_TomatoGDDCRO_Loam_S1_rainfed.PRM
   Tot(4)        1        5     1993    254.0    409.7   1539.8   356.10      0.0    248.4      5.6     37.1      0.0    159.2       83    165.0    164.7       66     0.000     0.000     0.000     0.000       75        0        0        0        0       34       23     5.454       66     50.7    2.766     0.85       16        7     1993  Amityhall_TomatoGDDCRO_Loam_S1_rainfed.PRM
   Tot(5)        1        5     1994     89.9    481.6   1502.9   358.83      0.0     89.9      0.0      0.0      0.0    107.1       31     95.3     95.7       56     0.000     0.000     0.000     0.000       72        0        0        0        0       60       34     2.581       33     45.8    1.183     0.58       13        7     1994  Amityhall_TomatoGDDCRO_Loam_S1_rainfed.PRM
   Tot(6)        1        5     1995    117.2    450.2   1503.9   360.82      0.0    117.1      0.1      6.3      0.0    125.4       37     93.9     93.6       61     0.000     0.000     0.000     0.000       72        0        0        0        0       62       29     2.724       34     49.0    1.335     0.61       13        7     1995  Amityhall_TomatoGDDCRO_Loam_S1_rainfed.PRM
   Tot(7)        1        5     1996    108.6    456.2   1512.3   362.61      0.0    108.6      0.0      0.0      0.0    121.2       39     99.4     99.7       56     0.000     0.000     0.000     0.000       73        0        0        0        0       59       34     2.833       35     46.2    1.309     0.59       14        7     1996  Amityhall_TomatoGDDCRO_Loam_S1_rainfed.PRM
   Tot(8)        1        5     1997    205.1    452.1   1530.4   363.73      0.0    194.5     10.6     51.7      0.0     91.7       34    161.2    160.5       72     0.000     0.000     0.000     0.000       74        0        0        0        0       36       17     5.212       63     53.1    2.768     1.10       15        7     1997  Amityhall_TomatoGDDCRO_Loam_S1_rainfed.PRM
   Tot(9)        1        5     1998    142.2    456.7   1494.5   366.70      0.0    142.0      0.2      0.0      0.0    115.1       33    108.9    108.2       72     0.000     0.000     0.000     0.000       71        0        0        0        0       61       20     3.153       40     50.1    1.579     0.70       12        7     1998  Amityhall_TomatoGDDCRO_Loam_S1_rainfed.PRM
  Tot(10)        1        5     1999    225.4    439.6   1530.0   368.38      0.0    225.4      0.0      0.0      0.0    140.2       58    183.8    183.8       76     0.000     0.000     0.000     0.000       74        0        0        0        0       41       16     5.839       69     53.8    3.142     0.97       15        7     1999  Amityhall_TomatoGDDCRO_Loam_S1_rainfed.PRM
  Tot(11)        1        5     2000    123.8    459.7   1508.6   369.55      0.0    123.8      0.0      0.0      0.0    101.0       36    134.7    135.8       63     0.000     0.000     0.000     0.000       73        0        0        0        0       48       24     4.107       50     48.5    1.992     0.84       14        7     2000  Amityhall_TomatoGDDCRO_Loam_S1_rainfed.PRM
  Tot(12)        1        5     2001    165.4    451.7   1506.2   371.14      0.0    160.5      4.9     29.0      0.0    135.1       50    111.4    111.9       54     0.000     0.000     0.000     0.000       73        0        0        0        0       54       37     3.315       40     43.7    1.447     0.59       14        7     2001  Amityhall_TomatoGDDCRO_Loam_S1_rainfed.PRM
  Tot(13)        1        5     2002    383.6    417.3   1533.4   373.28      0.0    349.3     34.3    198.0      0.0     97.7       44    164.4    163.8       71     0.000     0.000     0.000     0.000       75        0        0        0        0       28       18     5.866       68     52.7    3.092     1.18       16        7     2002  Amityhall_TomatoGDDCRO_Loam_S1_rainfed.PRM
  Tot(14)        1        5     2003    242.9    454.0   1519.4   375.80      0.0    234.4      8.5     23.7      0.0    122.2       48    189.3    186.1       79     0.000     0.000     0.000     0.000       73        0        0        0        0       37       14     5.954       71     54.1    3.224     1.04       14        7     2003  Amityhall_TomatoGDDCRO_Loam_S1_rainfed.PRM
  Tot(15)        1        5     2004     92.5    464.1   1520.0   377.52      0.0     92.5      0.0      0.0      0.0    107.2       33     98.3    102.0       57     0.000     0.000     0.000     0.000       73        0        0        0        0       58       33     2.999       36     47.6    1.428     0.69       14        7     2004  Amityhall_TomatoGDDCRO_Loam_S1_rainfed.PRM
  Tot(16)        1        5     2005    691.0    391.5   1527.5   379.80      0.0    589.3    101.7    209.2      0.0    157.9       79    226.6    222.0      100     0.000     0.000     0.000     0.000       73        0        0        0        0        6        0     8.370       98     57.5    4.814     1.25       14        7     2005  Amityhall_TomatoGDDCRO_Loam_S1_rainfed.PRM
  Tot(17)        1        5     2006    220.8    438.2   1503.6   381.90      0.0    214.0      6.8     32.5      0.0    101.6       41    185.1    188.6       79     0.000     0.000     0.000     0.000       72        0        0        0        0       27       12     6.194       74     52.6    3.258     1.14       13        7     2006  Amityhall_TomatoGDDCRO_Loam_S1_rainfed.PRM
  Tot(18)        1        5     2007    234.8    417.9   1504.1   383.79      0.0    230.2      4.6     39.2      0.0    128.6       65    175.6    176.3       69     0.000     0.000     0.000     0.000       72        0        0        0        0       29       20     5.862       70     49.7    2.916     0.96       13        7     2007  Amityhall_TomatoGDDCRO_Loam_S1_rainfed.PRM
  Tot(19)        1        5     2008    121.5    440.3   1513.5   385.60      0.0    121.5      0.0      0.0      0.0     94.7       37    140.5    140.6       63     0.000     0.000     0.000     0.000       73        0        0        0        0       42       24     4.728       55     48.6    2.296     0.98       14        7     2008  Amityhall_TomatoGDDCRO_Loam_S1_rainfed.PRM
  Tot(20)        1        5     2009    247.7    420.1   1542.4   387.43      0.0    246.6      1.1     19.4      0.0    138.1       64    194.1    193.3       80     0.000     0.000     0.000     0.000       75        0        0        0        0       28       13     6.952       78     54.6    3.797     1.14       16        7     2009  Amityhall_TomatoGDDCRO_Loam_S1_rainfed.PRM
  Tot(21)        1        5     2010    363.7    401.7   1515.0   389.90      0.0    331.9     31.8     56.5      0.0    119.4       56    214.5    211.3       96     0.000     0.000     0.000     0.000       72        0        0        0        0       18        3     7.863       92     55.1    4.333     1.30       13        7     2010  Amityhall_TomatoGDDCRO_Loam_S1_rainfed.PRM
  Tot(22)        1        5     2011    373.4    407.4   1510.3   391.65      0.0    342.3     31.1    109.3      0.0    111.6       48    197.8    198.8       94     0.000     0.000     0.000     0.000       73        0        0        0        0       25        4     7.401       85     55.0    4.073     1.32       14        7     2011  Amityhall_TomatoGDDCRO_Loam_S1_rainfed.PRM
  Tot(23)        1        5     2012    178.2    434.2   1500.0   393.85      0.0    176.7      1.5      0.0      0.0    121.6       45    152.5    151.5       75     0.000     0.000     0.000     0.000       72        0        0        0        0       48       16     5.030       59     52.5    2.641     0.96       13        7     2012  Amityhall_TomatoGDDCRO_Loam_S1_rainfed.PRM
  Tot(24)        1        5     2013    186.5    418.4   1515.6   396.52      0.0    186.5      0.0      0.0      0.0    120.5       52    168.9    170.7       75     0.000     0.000     0.000     0.000       73        0        0        0        0       38       16     6.083       69     53.1    3.232     1.12       14        7     2013  Amityhall_TomatoGDDCRO_Loam_S1_rainfed.PRM
  Tot(25)        1        5     2014    139.0    431.6   1515.2   398.65      0.0    138.8      0.2      2.5      0.0    129.5       51    120.3    122.6       58     0.000     0.000     0.000     0.000       73        0        0        0        0       52       31     4.148       47     48.6    2.018     0.81       14        7     2014  Amityhall_TomatoGDDCRO_Loam_S1_rainfed.PRM
  Tot(26)        1        5     2015    145.2    429.4   1516.8   400.83      0.0    145.1      0.1      0.0      0.0    106.9       43    145.7    144.8       67     0.000     0.000     0.000     0.000       73        0        0        0        0       41       21     5.186       59     51.4    2.668     1.06       14        7     2015  Amityhall_TomatoGDDCRO_Loam_S1_rainfed.PRM
  Tot(27)        1        5     2016    214.5    425.7   1510.7   404.21      0.0    213.3      1.2      1.6      0.0    129.5       59    189.4    189.5       77     0.000     0.000     0.000     0.000       72        0        0        0        0        9       15     6.661       76     52.0    3.464     1.09       13        7     2016  Amityhall_TomatoGDDCRO_Loam_S1_rainfed.PRM
  Tot(28)        1        5     2017    352.7    390.5   1516.1   406.21      0.0    326.1     26.6    100.7      0.0    113.4       56    201.2    199.7       90     0.000     0.000     0.000     0.000       73        0        0        0        0       24        7     7.570       85     56.4    4.269     1.36       14        7     2017  Amityhall_TomatoGDDCRO_Loam_S1_rainfed.PRM
  Tot(29)        1        5     2018    220.7    400.7   1526.7   408.21      0.0    216.5      4.2     31.2      0.0    138.6       70    159.3    161.4       68     0.000     0.000     0.000     0.000       74        0        0        0        0       39       23     6.012       66     49.6    2.984     1.00       15        7     2018  Amityhall_TomatoGDDCRO_Loam_S1_rainfed.PRM
