AquaCrop 6.0 (March 2017) - Output created on (date) : 3/5/2021   at (time) : 4:08:03 PM

    RunNr     Day1   Month1    Year1     Rain      ETo       GD     CO2      Irri   Infilt   Runoff    Drain   Upflow        E     E/Ex       Tr      TrW   Tr/Trx    SaltIn   SaltOut    SaltUp  SaltProf     Cycle   SaltStr  FertStr  WeedStr  TempStr   ExpStr   StoStr  BioMass  Brelative   HI     Yield     WPet     DayN   MonthN    YearN
                                           mm       mm    °C.day    ppm        mm       mm       mm       mm       mm       mm        %       mm       mm        %    ton/ha    ton/ha    ton/ha    ton/ha      days       %        %        %        %        %        %    ton/ha        %       %    ton/ha    kg/m3
   Tot(1)        1        5     1990    102.5    447.9   1516.3   354.39      0.0    102.3      0.2      0.0      0.0    119.2       36    112.6    111.5       73     0.000     0.000     0.000     0.000       73        0        0        0        0       56       15     3.384       42     54.4    1.840     0.79       14        7     1990  Amityhall_TomatoGDDCRO_Clay_S1_rainfed.PRM
   Tot(2)        1        5     1991    112.3    433.2   1529.3   355.61      0.0    110.7      1.6      0.0      0.0    132.4       50    117.2    117.8       58     0.000     0.000     0.000     0.000       74        0        0        0        0       54       32     3.520       43     50.2    1.765     0.71       15        7     1991  Amityhall_TomatoGDDCRO_Clay_S1_rainfed.PRM
   Tot(3)        1        5     1992    109.9    443.2   1529.3   356.45      0.0    109.7      0.2      0.0      0.0    127.3       43    119.3    119.2       63     0.000     0.000     0.000     0.000       74        0        0        0        0       56       25     3.617       45     51.5    1.863     0.76       15        7     1992  Amityhall_TomatoGDDCRO_Clay_S1_rainfed.PRM
   Tot(4)        1        5     1993    254.0    409.7   1539.8   356.10      0.0    235.7     18.3     32.6      0.0    172.2       93    155.8    155.3       60     0.000     0.000     0.000     0.000       75        0        0        0        0        3       42     4.956       60     53.9    2.672     0.81       16        7     1993  Amityhall_TomatoGDDCRO_Clay_S1_rainfed.PRM
   Tot(5)        1        5     1994     89.9    481.6   1502.9   358.83      0.0     89.9      0.0      0.4      0.0    125.0       34     97.5     98.0       63     0.000     0.000     0.000     0.000       72        0        0        0        0       62       25     2.607       33     50.0    1.303     0.59       13        7     1994  Amityhall_TomatoGDDCRO_Clay_S1_rainfed.PRM
   Tot(6)        1        5     1995    117.2    450.2   1503.9   360.82      0.0    115.5      1.7      8.1      0.0    140.7       38     90.8     90.5       72     0.000     0.000     0.000     0.000       72        0        0        0        0       64       19     2.633       33     52.3    1.377     0.59       13        7     1995  Amityhall_TomatoGDDCRO_Clay_S1_rainfed.PRM
   Tot(7)        1        5     1996    108.6    456.2   1512.3   362.61      0.0    108.5      0.1      0.4      0.0    138.7       41    101.3    101.7       65     0.000     0.000     0.000     0.000       73        0        0        0        0       61       25     2.882       36     50.2    1.445     0.60       14        7     1996  Amityhall_TomatoGDDCRO_Clay_S1_rainfed.PRM
   Tot(8)        1        5     1997    205.1    452.1   1530.4   363.73      0.0    172.9     32.2     32.9      0.0    128.2       44    133.2    132.1       66     0.000     0.000     0.000     0.000       74        0        0        0        0       33       25     4.205       51     55.6    2.338     0.89       15        7     1997  Amityhall_TomatoGDDCRO_Clay_S1_rainfed.PRM
   Tot(9)        1        5     1998    142.2    456.7   1494.5   366.70      0.0    139.0      3.2      0.0      0.0    137.3       36    100.5    100.4       81     0.000     0.000     0.000     0.000       71        0        0        0        0       63       12     2.926       37     52.1    1.524     0.64       12        7     1998  Amityhall_TomatoGDDCRO_Clay_S1_rainfed.PRM
  Tot(10)        1        5     1999    225.4    439.6   1530.0   368.38      0.0    224.8      0.6      0.0      0.0    170.8       65    170.2    169.9       78     0.000     0.000     0.000     0.000       74        0        0        0        0       45       15     5.422       65     55.1    2.986     0.88       15        7     1999  Amityhall_TomatoGDDCRO_Clay_S1_rainfed.PRM
  Tot(11)        1        5     2000    123.8    459.7   1508.6   369.55      0.0    123.5      0.3      0.0      0.0    131.7       43    123.9    124.8       64     0.000     0.000     0.000     0.000       73        0        0        0        0       52       21     3.742       45     50.8    1.899     0.74       14        7     2000  Amityhall_TomatoGDDCRO_Clay_S1_rainfed.PRM
  Tot(12)        1        5     2001    165.4    451.7   1506.2   371.14      0.0    153.5     11.9     18.2      0.0    156.6       60    117.2    117.9       53     0.000     0.000     0.000     0.000       73        0        0        0        0       53       42     3.449       42     45.8    1.579     0.58       14        7     2001  Amityhall_TomatoGDDCRO_Clay_S1_rainfed.PRM
  Tot(13)        1        5     2002    383.6    417.3   1533.4   373.28      0.0    286.3     97.3    153.5      0.0    132.8       55    111.4    110.6       52     0.000     0.000     0.000     0.000       75        0        0        0        0       26       45     3.476       40     54.9    1.909     0.78       16        7     2002  Amityhall_TomatoGDDCRO_Clay_S1_rainfed.PRM
  Tot(14)        1        5     2003    242.9    454.0   1519.4   375.80      0.0    229.7     13.2     12.5      0.0    156.1       56    176.9    174.7       80     0.000     0.000     0.000     0.000       73        0        0        0        0       35       16     5.573       66     55.6    3.099     0.93       14        7     2003  Amityhall_TomatoGDDCRO_Clay_S1_rainfed.PRM
  Tot(15)        1        5     2004     92.5    464.1   1520.0   377.52      0.0     92.3      0.2      0.4      0.0    125.3       37    102.2    105.1       61     0.000     0.000     0.000     0.000       73        0        0        0        0       58       25     3.102       37     51.2    1.589     0.70       14        7     2004  Amityhall_TomatoGDDCRO_Clay_S1_rainfed.PRM
  Tot(16)        1        5     2005    691.0    391.5   1527.5   379.80      0.0    451.4    239.6    197.2      0.0    177.1       87     69.9     70.0       31     0.000     0.000     0.000     0.000       73        0        0        0        0        6       62     2.400       28     57.5    1.380     0.56       14        7     2005  Amityhall_TomatoGDDCRO_Clay_S1_rainfed.PRM
  Tot(17)        1        5     2006    220.8    438.2   1503.6   381.90      0.0    199.3     21.5     29.7      0.0    131.6       50    126.7    123.2       59     0.000     0.000     0.000     0.000       72        0        0        0        0       16       28     4.001       48     55.5    2.222     0.86       13        7     2006  Amityhall_TomatoGDDCRO_Clay_S1_rainfed.PRM
  Tot(18)        1        5     2007    234.8    417.9   1504.1   383.79      0.0    215.1     19.7     42.0      0.0    158.4       80    125.9    128.1       49     0.000     0.000     0.000     0.000       72        0        0        0        0        3       44     3.863       46     54.2    2.092     0.74       13        7     2007  Amityhall_TomatoGDDCRO_Clay_S1_rainfed.PRM
  Tot(19)        1        5     2008    121.5    440.3   1513.5   385.60      0.0    120.9      0.6      0.1      0.0    126.2       46    131.9    132.9       65     0.000     0.000     0.000     0.000       73        0        0        0        0       46       22     4.328       50     50.8    2.199     0.85       14        7     2008  Amityhall_TomatoGDDCRO_Clay_S1_rainfed.PRM
  Tot(20)        1        5     2009    247.7    420.1   1542.4   387.43      0.0    242.7      5.0     10.4      0.0    166.4       75    183.5    182.5       78     0.000     0.000     0.000     0.000       75        0        0        0        0       24       24     6.511       73     56.0    3.647     1.04       16        7     2009  Amityhall_TomatoGDDCRO_Clay_S1_rainfed.PRM
  Tot(21)        1        5     2010    363.7    401.7   1515.0   389.90      0.0    299.6     64.1     27.7      0.0    148.3       66    157.2    155.3       73     0.000     0.000     0.000     0.000       72        0        0        0        0       13       21     5.785       68     55.7    3.222     1.05       13        7     2010  Amityhall_TomatoGDDCRO_Clay_S1_rainfed.PRM
  Tot(22)        1        5     2011    373.4    407.4   1510.3   391.65      0.0    298.8     74.6     72.0      0.0    138.3       56    150.8    149.9       77     0.000     0.000     0.000     0.000       73        0        0        0        0       18       19     5.401       62     55.7    3.009     1.04       14        7     2011  Amityhall_TomatoGDDCRO_Clay_S1_rainfed.PRM
  Tot(23)        1        5     2012    178.2    434.2   1500.0   393.85      0.0    175.9      2.3      3.7      0.0    143.7       48    142.4    143.6       81     0.000     0.000     0.000     0.000       72        0        0        0        0       51       11     4.672       55     53.9    2.517     0.88       13        7     2012  Amityhall_TomatoGDDCRO_Clay_S1_rainfed.PRM
  Tot(24)        1        5     2013    186.5    418.4   1515.6   396.52      0.0    185.3      1.2      0.8      0.0    148.9       60    158.2    159.7       76     0.000     0.000     0.000     0.000       73        0        0        0        0       45       17     5.657       65     54.2    3.068     1.00       14        7     2013  Amityhall_TomatoGDDCRO_Clay_S1_rainfed.PRM
  Tot(25)        1        5     2014    139.0    431.6   1515.2   398.65      0.0    137.6      1.4      0.0      0.0    159.1       58    118.3    119.6       61     0.000     0.000     0.000     0.000       73        0        0        0        0       55       29     4.068       46     50.6    2.059     0.74       14        7     2014  Amityhall_TomatoGDDCRO_Clay_S1_rainfed.PRM
  Tot(26)        1        5     2015    145.2    429.4   1516.8   400.83      0.0    143.3      1.9      0.8      0.0    133.0       50    137.9    137.5       68     0.000     0.000     0.000     0.000       73        0        0        0        0       43       19     4.852       55     53.4    2.589     0.96       14        7     2015  Amityhall_TomatoGDDCRO_Clay_S1_rainfed.PRM
  Tot(27)        1        5     2016    214.5    425.7   1510.7   404.21      0.0    210.3      4.2      1.2      0.0    153.7       68    177.5    176.5       75     0.000     0.000     0.000     0.000       72        0        0        0        0       10       18     6.070       69     54.1    3.282     0.99       13        7     2016  Amityhall_TomatoGDDCRO_Clay_S1_rainfed.PRM
  Tot(28)        1        5     2017    352.7    390.5   1516.1   406.21      0.0    249.1    103.6     50.9      0.0    139.2       67    176.9    177.0       81     0.000     0.000     0.000     0.000       73        0        0        0        0       38       20     6.635       74     55.6    3.689     1.17       14        7     2017  Amityhall_TomatoGDDCRO_Clay_S1_rainfed.PRM
  Tot(29)        1        5     2018    220.7    400.7   1526.7   408.21      0.0    206.3     14.4     23.4      0.0    157.1       80    159.9    161.0       67     0.000     0.000     0.000     0.000       74        0        0        0        0       37       32     6.000       66     50.9    3.052     0.96       15        7     2018  Amityhall_TomatoGDDCRO_Clay_S1_rainfed.PRM
