AquaCrop 6.0 (March 2017) - Output created on (date) : 3/5/2021   at (time) : 4:00:20 PM

    RunNr     Day1   Month1    Year1     Rain      ETo       GD     CO2      Irri   Infilt   Runoff    Drain   Upflow        E     E/Ex       Tr      TrW   Tr/Trx    SaltIn   SaltOut    SaltUp  SaltProf     Cycle   SaltStr  FertStr  WeedStr  TempStr   ExpStr   StoStr  BioMass  Brelative   HI     Yield     WPet     DayN   MonthN    YearN
                                           mm       mm    °C.day    ppm        mm       mm       mm       mm       mm       mm        %       mm       mm        %    ton/ha    ton/ha    ton/ha    ton/ha      days       %        %        %        %        %        %    ton/ha        %       %    ton/ha    kg/m3
   Tot(1)        1       10     1990    266.7    480.7   1295.0   355.00    215.9    241.7     25.0     17.9      0.0    132.2       90    341.8    341.8       93     0.000     0.000     0.000     0.000      101        0        0        0        0        0        6    15.200       94     53.7    8.160     1.73       15        1     1991  Amityhall_SweetPotatoGDDCRO_Clay_S2_riegoIRR.PRM
   Tot(2)        1       10     1991    133.4    514.5   1296.8   356.03    379.1    120.4     13.0      0.4      0.0    141.8       89    391.4    391.4      100     0.000     0.000     0.000     0.000      102        0        0        0        0        0       -0    16.341      100     53.8    8.793     1.66       17        1     1992  Amityhall_SweetPotatoGDDCRO_Clay_S2_riegoIRR.PRM
   Tot(3)        1       10     1992     75.0    523.1   1294.1   356.27    436.2     74.7      0.3      0.0      0.0    132.8       86    409.9    404.8      100     0.000     0.000     0.000     0.000       99        0        0        0        0        0        0    15.909      100     53.7    8.541     1.57       12        1     1993  Amityhall_SweetPotatoGDDCRO_Clay_S2_riegoIRR.PRM
   Tot(4)        1       10     1993    191.1    507.4   1295.5   357.47    341.4    162.2     28.9      4.6      0.0    139.2       88    387.0    392.1      100     0.000     0.000     0.000     0.000      100        0        0        0        0        0        0    16.108      100     53.7    8.655     1.65       15        1     1994  Amityhall_SweetPotatoGDDCRO_Clay_S2_riegoIRR.PRM
   Tot(5)        1       10     1994    189.2    512.7   1299.0   359.82    346.3    163.9     25.3      8.8      0.0    139.6       89    394.3    394.3      100     0.000     0.000     0.000     0.000      101        0        0        0        0        0        0    16.412      100     53.7    8.819     1.66       15        1     1995  Amityhall_SweetPotatoGDDCRO_Clay_S2_riegoIRR.PRM
   Tot(6)        1       10     1995    224.4    492.4   1294.2   361.72    337.0    204.9     19.5     49.9      0.0    136.9       96    387.8    384.3      100     0.000     0.000     0.000     0.000       99        0        0        0        0        0        0    16.082      100     53.8    8.656     1.65       13        1     1996  Amityhall_SweetPotatoGDDCRO_Clay_S2_riegoIRR.PRM
   Tot(7)        1       10     1996    252.2    518.2   1297.0   363.17    311.9    217.3     34.9     43.0      0.0    134.7       93    385.7    389.3       94     0.000     0.000     0.000     0.000      105        0        0        0        0        0        6    16.068       94     53.9    8.656     1.67       19        1     1997  Amityhall_SweetPotatoGDDCRO_Clay_S2_riegoIRR.PRM
   Tot(8)        1       10     1997    222.5    492.9   1295.1   365.22    318.7    201.8     20.7     32.8      0.0    141.7       94    379.4    379.4      100     0.000     0.000     0.000     0.000       98        0        0        0        0        0        0    15.979      100     53.8    8.600     1.66       13        1     1998  Amityhall_SweetPotatoGDDCRO_Clay_S2_riegoIRR.PRM
   Tot(9)        1       10     1998    421.8    472.2   1296.4   367.54    208.7    288.2    133.6     42.9      0.0    122.3       88    366.7    366.7      100     0.000     0.000     0.000     0.000      101        0        0        0        0        0        0    16.783      100     53.7    9.018     1.85       15        1     1999  Amityhall_SweetPotatoGDDCRO_Clay_S2_riegoIRR.PRM
  Tot(10)        1       10     1999    392.9    510.6   1294.6   368.97    273.4    325.3     67.6     95.3      0.0    128.7       96    404.8    404.8       99     0.000     0.000     0.000     0.000      111        0        0        0        0        0        2    18.294       99     53.7    9.823     1.85       25        1     2000  Amityhall_SweetPotatoGDDCRO_Clay_S2_riegoIRR.PRM
  Tot(11)        1       10     2000    370.5    493.0   1294.3   370.35    248.7    280.4     90.1     46.8      0.0    137.5       90    377.5    373.1      100     0.000     0.000     0.000     0.000      105        0        0        0        0        0        0    17.558      100     53.8    9.438     1.83       19        1     2001  Amityhall_SweetPotatoGDDCRO_Clay_S2_riegoIRR.PRM
  Tot(12)        1       10     2001    455.1    474.6   1301.5   372.21    173.8    352.3    102.8     68.1      0.0    134.4       92    358.1    362.5       99     0.000     0.000     0.000     0.000      103        0        0        0        0        0        1    17.235      100     53.8    9.280     1.89       17        1     2002  Amityhall_SweetPotatoGDDCRO_Clay_S2_riegoIRR.PRM
  Tot(13)        1       10     2002    205.1    482.5   1295.7   374.54    311.6    182.4     22.7     30.3      0.0    127.7       87    371.3    371.3      100     0.000     0.000     0.000     0.000       98        0        0        0        0        0        0    16.365      100     53.8    8.808     1.77       13        1     2003  Amityhall_SweetPotatoGDDCRO_Clay_S2_riegoIRR.PRM
  Tot(14)        1       10     2003    291.2    499.0   1301.8   376.66    247.8    249.8     41.4      8.3      0.0    133.4       93    390.3    390.3      100     0.000     0.000     0.000     0.000       99        0        0        0        0        0       -0    16.805      100     53.8    9.038     1.73       13        1     2004  Amityhall_SweetPotatoGDDCRO_Clay_S2_riegoIRR.PRM
  Tot(15)        1       10     2004    141.3    544.0   1304.9   378.66    401.4    135.5      5.8      7.4      0.0    134.8       87    428.1    428.1      100     0.000     0.000     0.000     0.000      100        0        0        0        0        0        0    17.191      100     53.8    9.253     1.65       14        1     2005  Amityhall_SweetPotatoGDDCRO_Clay_S2_riegoIRR.PRM
  Tot(16)        1       10     2005    709.8    451.0   1299.1   380.85    170.2    501.4    208.4    225.7      0.0    117.8       99    362.9    362.9      100     0.000     0.000     0.000     0.000      103        0        0        0        0        0       -0    17.565      100     53.8    9.451     1.97       18        1     2006  Amityhall_SweetPotatoGDDCRO_Clay_S2_riegoIRR.PRM
  Tot(17)        1       10     2006    208.1    489.6   1304.2   382.85    296.3    179.0     29.1      1.5      0.0    135.8       90    372.8    372.8      100     0.000     0.000     0.000     0.000       95        0        0        0        0        0        0    16.419      100     53.8    8.834     1.74        9        1     2007  Amityhall_SweetPotatoGDDCRO_Clay_S2_riegoIRR.PRM
  Tot(18)        1       10     2007    615.8    468.8   1298.7   384.70    210.2    423.3    192.5    198.4      0.0    121.2       97    348.5    348.5       93     0.000     0.000     0.000     0.000      104        0        0        0        0        0        6    16.491       93     53.8    8.879     1.90       19        1     2008  Amityhall_SweetPotatoGDDCRO_Clay_S2_riegoIRR.PRM
  Tot(19)        1       10     2008    265.9    487.4   1302.9   386.51    284.8    223.0     42.9     40.4      0.0    133.5       94    367.8    367.8       97     0.000     0.000     0.000     0.000      103        0        0        0        0        0        3    17.335       97     53.8    9.333     1.87       18        1     2009  Amityhall_SweetPotatoGDDCRO_Clay_S2_riegoIRR.PRM
  Tot(20)        1       10     2009    249.9    482.5   1301.4   388.66    289.2    191.3     58.6      7.4      0.0    135.3       94    371.7    371.7      100     0.000     0.000     0.000     0.000       98        0        0        0        0        0        0    17.091      100     53.8    9.198     1.82       12        1     2010  Amityhall_SweetPotatoGDDCRO_Clay_S2_riegoIRR.PRM
  Tot(21)        1       10     2010    297.1    496.0   1299.4   390.77    272.6    249.5     47.6     37.7      0.0    127.8       94    391.5    391.5      100     0.000     0.000     0.000     0.000      109        0        0        0        0        0        0    19.277      100     53.8   10.370     2.00       24        1     2011  Amityhall_SweetPotatoGDDCRO_Clay_S2_riegoIRR.PRM
  Tot(22)        1       10     2011    208.1    498.0   1296.9   392.75    324.0    192.5     15.6     23.4      0.0    134.2       97    393.2    393.2      100     0.000     0.000     0.000     0.000      100        0        0        0        0        0        0    17.484      100     53.7    9.388     1.79       14        1     2012  Amityhall_SweetPotatoGDDCRO_Clay_S2_riegoIRR.PRM
  Tot(23)        1       10     2012    277.9    494.7   1299.4   395.19    339.6    191.6     86.3     51.1      0.0    133.3       91    381.2    381.2      100     0.000     0.000     0.000     0.000      100        0        0        0        0        0        0    17.590      100     53.8    9.467     1.85       15        1     2013  Amityhall_SweetPotatoGDDCRO_Clay_S2_riegoIRR.PRM
  Tot(24)        1       10     2013    139.2    481.3   1306.2   397.58    338.1    130.6      8.6      4.6      0.0    124.4       89    373.7    373.7      100     0.000     0.000     0.000     0.000       97        0        0        0        0        0        0    17.125      100     53.6    9.185     1.85       11        1     2014  Amityhall_SweetPotatoGDDCRO_Clay_S2_riegoIRR.PRM
  Tot(25)        1       10     2014    197.7    482.6   1298.0   399.74    278.6    181.9     15.8      0.0      0.0    128.5       86    365.5    370.6      100     0.000     0.000     0.000     0.000       98        0        0        0        0        0       -0    17.390      100     53.8    9.359     1.90       12        1     2015  Amityhall_SweetPotatoGDDCRO_Clay_S2_riegoIRR.PRM
  Tot(26)        1       10     2015    272.3    460.6   1300.5   402.52    201.8    255.3     17.0      6.2      0.0    132.2       95    352.7    352.7      100     0.000     0.000     0.000     0.000       96        0        0        0        0        0        0    17.233      100     53.8    9.267     1.92       10        1     2016  Amityhall_SweetPotatoGDDCRO_Clay_S2_riegoIRR.PRM
  Tot(27)        1       10     2016    308.3    456.5   1299.9   405.21    185.8    280.4     27.9     20.0      0.0    127.1       96    353.0    353.0      100     0.000     0.000     0.000     0.000       98        0        0        0        0        0       -0    17.635      100     53.8    9.491     1.99       12        1     2017  Amityhall_SweetPotatoGDDCRO_Clay_S2_riegoIRR.PRM
  Tot(28)        1       10     2017    602.5    419.9   1294.6   407.21     58.7    483.4    119.1    131.5      0.0    125.0       97    270.6    270.6       85     0.000     0.000     0.000     0.000      100        0        0        0        0        0       13    15.199       85     53.7    8.167     2.07       14        1     2018  Amityhall_SweetPotatoGDDCRO_Clay_S2_riegoIRR.PRM
  Tot(29)        1       10     2018    172.4    479.5   1295.5   409.21    352.3    152.8     19.6     36.0      0.0    133.9       95    369.4    369.4      100     0.000     0.000     0.000     0.000       98        0        0        0        0        0        0    17.544      100     53.8    9.442     1.88       13        1     2019  Amityhall_SweetPotatoGDDCRO_Clay_S2_riegoIRR.PRM
