AquaCrop 6.0 (March 2017) - Output created on (date) : 3/5/2021   at (time) : 3:59:49 PM

    RunNr     Day1   Month1    Year1     Rain      ETo       GD     CO2      Irri   Infilt   Runoff    Drain   Upflow        E     E/Ex       Tr      TrW   Tr/Trx    SaltIn   SaltOut    SaltUp  SaltProf     Cycle   SaltStr  FertStr  WeedStr  TempStr   ExpStr   StoStr  BioMass  Brelative   HI     Yield     WPet     DayN   MonthN    YearN
                                           mm       mm    °C.day    ppm        mm       mm       mm       mm       mm       mm        %       mm       mm        %    ton/ha    ton/ha    ton/ha    ton/ha      days       %        %        %        %        %        %    ton/ha        %       %    ton/ha    kg/m3
   Tot(1)        1       10     1990    266.7    480.7   1295.0   355.00      0.0    249.9     16.8    104.9      0.0     90.6       61    167.6    167.6       46     0.000     0.000     0.000     0.000      101        0        0        0        0        1       45     7.044       43     56.4    3.970     1.54       15        1     1991  Amityhall_SweetPotatoGDDCRO_Clay_S2_rainfed.PRM
   Tot(2)        1       10     1991    133.4    514.5   1296.8   356.03      0.0    132.1      1.3      0.5      0.0     90.5       55    267.9    267.9       70     0.000     0.000     0.000     0.000      102        0        0        0        0       12       25    11.138       68     45.1    5.026     1.41       17        1     1992  Amityhall_SweetPotatoGDDCRO_Clay_S2_rainfed.PRM
   Tot(3)        1       10     1992     75.0    523.1   1294.1   356.27      0.0     75.0      0.0      0.0      0.0     91.1       47    199.1    198.1       55     0.000     0.000     0.000     0.000       99        0        0        0        0       63       37     7.718       49     38.9    3.001     1.03       12        1     1993  Amityhall_SweetPotatoGDDCRO_Clay_S2_rainfed.PRM
   Tot(4)        1       10     1993    191.1    507.4   1295.5   357.47      0.0    180.4     10.7      3.3      0.0     92.9       55    294.4    295.3       78     0.000     0.000     0.000     0.000      100        0        0        0        0       31       17    12.327       77     48.9    6.025     1.56       15        1     1994  Amityhall_SweetPotatoGDDCRO_Clay_S2_rainfed.PRM
   Tot(5)        1       10     1994    189.2    512.7   1299.0   359.82      0.0    178.8     10.4      0.0      0.0     94.2       59    303.6    303.6       78     0.000     0.000     0.000     0.000      101        0        0        0        0        5       18    12.774       79     47.3    6.042     1.53       15        1     1995  Amityhall_SweetPotatoGDDCRO_Clay_S2_rainfed.PRM
   Tot(6)        1       10     1995    224.4    492.4   1294.2   361.72      0.0    205.6     18.8     51.2      0.0    132.5       78    235.2    233.2       66     0.000     0.000     0.000     0.000       99        0        0        0        0       62       35     9.741       61     44.0    4.289     1.17       13        1     1996  Amityhall_SweetPotatoGDDCRO_Clay_S2_rainfed.PRM
   Tot(7)        1       10     1996    252.2    518.2   1297.0   363.17      0.0    233.6     18.6      2.7      0.0    111.8       76    340.0    341.9       84     0.000     0.000     0.000     0.000      105        0        0        0        0        8       15    14.428       84     49.0    7.076     1.57       19        1     1997  Amityhall_SweetPotatoGDDCRO_Clay_S2_rainfed.PRM
   Tot(8)        1       10     1997    222.5    492.9   1295.1   365.22      0.0    209.4     13.1     35.1      0.0    121.8       77    269.8    269.8       73     0.000     0.000     0.000     0.000       98        0        0        0        0       51       27    11.446       72     45.6    5.217     1.34       13        1     1998  Amityhall_SweetPotatoGDDCRO_Clay_S2_rainfed.PRM
   Tot(9)        1       10     1998    421.8    472.2   1296.4   367.54      0.0    301.3    120.5    132.2      0.0     98.3       70     93.0     93.0       25     0.000     0.000     0.000     0.000      101        0        0        0        0        1       63     4.181       25     53.7    2.247     1.18       15        1     1999  Amityhall_SweetPotatoGDDCRO_Clay_S2_rainfed.PRM
  Tot(10)        1       10     1999    392.9    510.6   1294.6   368.97      0.0    333.6     59.3    142.4      0.0    126.6       94    248.8    248.8       61     0.000     0.000     0.000     0.000      111        0        0        0        0        0       42    10.978       60     50.1    5.498     1.47       25        1     2000  Amityhall_SweetPotatoGDDCRO_Clay_S2_rainfed.PRM
  Tot(11)        1       10     2000    370.5    493.0   1294.3   370.35      0.0    301.7     68.8     10.4      0.0     92.1       58    353.1    348.7       95     0.000     0.000     0.000     0.000      105        0        0        0        0       31        3    16.545       94     53.3    8.823     1.98       19        1     2001  Amityhall_SweetPotatoGDDCRO_Clay_S2_rainfed.PRM
  Tot(12)        1       10     2001    455.1    474.6   1301.5   372.21      0.0    372.9     82.2    118.6      0.0    114.6       79    217.8    222.2       60     0.000     0.000     0.000     0.000      103        0        0        0        0        0       32    10.487       61     53.8    5.646     1.70       17        1     2002  Amityhall_SweetPotatoGDDCRO_Clay_S2_rainfed.PRM
  Tot(13)        1       10     2002    205.1    482.5   1295.7   374.54      0.0    193.2     11.9     20.2      0.0    111.0       71    270.4    270.4       75     0.000     0.000     0.000     0.000       98        0        0        0        0       54       23    11.960       73     48.4    5.792     1.52       13        1     2003  Amityhall_SweetPotatoGDDCRO_Clay_S2_rainfed.PRM
  Tot(14)        1       10     2003    291.2    499.0   1301.8   376.66      0.0    279.3     11.9      9.0      0.0    102.5       71    369.5    369.5       95     0.000     0.000     0.000     0.000       99        0        0        0        0        1        4    15.895       96     52.7    8.372     1.78       13        1     2004  Amityhall_SweetPotatoGDDCRO_Clay_S2_rainfed.PRM
  Tot(15)        1       10     2004    141.3    544.0   1304.9   378.66      0.0    139.1      2.2      8.0      0.0     94.2       52    249.5    249.5       63     0.000     0.000     0.000     0.000      100        0        0        0        0       60       31     9.971       59     42.3    4.213     1.23       14        1     2005  Amityhall_SweetPotatoGDDCRO_Clay_S2_rainfed.PRM
  Tot(16)        1       10     2005    709.8    451.0   1299.1   380.85      0.0    505.8    204.0    272.7      0.0    116.3       98    179.0    179.0       49     0.000     0.000     0.000     0.000      103        0        0        0        0        0       55     8.755       50     53.8    4.711     1.60       18        1     2006  Amityhall_SweetPotatoGDDCRO_Clay_S2_rainfed.PRM
  Tot(17)        1       10     2006    208.1    489.6   1304.2   382.85      0.0    201.2      6.9      2.0      0.0     84.1       55    329.8    329.8       89     0.000     0.000     0.000     0.000       95        0        0        0        0        4        8    14.680       90     51.1    7.506     1.82        9        1     2007  Amityhall_SweetPotatoGDDCRO_Clay_S2_rainfed.PRM
  Tot(18)        1       10     2007    615.8    468.8   1298.7   384.70      0.0    440.7    175.1    255.8      0.0    119.2       96    199.8    199.8       53     0.000     0.000     0.000     0.000      104        0        0        0        0        0       49     9.328       52     53.8    5.017     1.58       19        1     2008  Amityhall_SweetPotatoGDDCRO_Clay_S2_rainfed.PRM
  Tot(19)        1       10     2008    265.9    487.4   1302.9   386.51      0.0    233.7     32.2     58.5      0.0    113.5       80    215.6    215.6       57     0.000     0.000     0.000     0.000      103        0        0        0        0        0       37     9.931       55     55.5    5.513     1.69       18        1     2009  Amityhall_SweetPotatoGDDCRO_Clay_S2_rainfed.PRM
  Tot(20)        1       10     2009    249.9    482.5   1301.4   388.66      0.0    218.8     31.1      0.1      0.0    122.2       83    290.6    290.6       79     0.000     0.000     0.000     0.000       98        0        0        0        0       12       17    13.509       80     49.1    6.639     1.61       12        1     2010  Amityhall_SweetPotatoGDDCRO_Clay_S2_rainfed.PRM
  Tot(21)        1       10     2010    297.1    496.0   1299.4   390.77      0.0    276.5     20.6     32.6      0.0    124.8       92    299.8    299.8       77     0.000     0.000     0.000     0.000      109        0        0        0        0        0       25    14.873       77     53.5    7.962     1.88       24        1     2011  Amityhall_SweetPotatoGDDCRO_Clay_S2_rainfed.PRM
  Tot(22)        1       10     2011    208.1    498.0   1296.9   392.75      0.0    200.4      7.7     21.4      0.0    130.9       94    267.1    267.1       68     0.000     0.000     0.000     0.000      100        0        0        0        0        0       33    11.772       68     46.7    5.492     1.38       14        1     2012  Amityhall_SweetPotatoGDDCRO_Clay_S2_rainfed.PRM
  Tot(23)        1       10     2012    277.9    494.7   1299.4   395.19      0.0    210.8     67.1     45.3      0.0    102.2       69    285.2    285.2       75     0.000     0.000     0.000     0.000      100        0        0        0        0        1       22    13.353       76     47.6    6.350     1.64       15        1     2013  Amityhall_SweetPotatoGDDCRO_Clay_S2_rainfed.PRM
  Tot(24)        1       10     2013    139.2    481.3   1306.2   397.58      0.0    138.1      1.1      5.0      0.0     86.5       61    269.4    269.4       73     0.000     0.000     0.000     0.000       97        0        0        0        0        5       21    12.501       74     45.5    5.684     1.60       11        1     2014  Amityhall_SweetPotatoGDDCRO_Clay_S2_rainfed.PRM
  Tot(25)        1       10     2014    197.7    482.6   1298.0   399.74      0.0    195.8      1.9      0.0      0.0     91.9       60    318.2    318.8       88     0.000     0.000     0.000     0.000       98        0        0        0        0        8       10    15.266       89     50.7    7.743     1.89       12        1     2015  Amityhall_SweetPotatoGDDCRO_Clay_S2_rainfed.PRM
  Tot(26)        1       10     2015    272.3    460.6   1300.5   402.52      0.0    270.1      2.2      7.9      0.0    122.2       88    338.3    338.3       96     0.000     0.000     0.000     0.000       96        0        0        0        0        1        5    16.516       97     53.0    8.749     1.90       10        1     2016  Amityhall_SweetPotatoGDDCRO_Clay_S2_rainfed.PRM
  Tot(27)        1       10     2016    308.3    456.5   1299.9   405.21      0.0    282.8     25.5    108.9      0.0    122.3       93    108.9    108.9       31     0.000     0.000     0.000     0.000       98        0        0        0        0        0       60     5.159       30     53.8    2.777     1.21       12        1     2017  Amityhall_SweetPotatoGDDCRO_Clay_S2_rainfed.PRM
  Tot(28)        1       10     2017    602.5    419.9   1294.6   407.21      0.0    495.8    106.7    296.6      0.0    120.0       93     64.2     64.2       20     0.000     0.000     0.000     0.000      100        0        0        0        0        0       71     3.375       19     53.7    1.813     0.99       14        1     2018  Amityhall_SweetPotatoGDDCRO_Clay_S2_rainfed.PRM
  Tot(29)        1       10     2018    172.4    479.5   1295.5   409.21      0.0    154.4     18.0     36.7      0.0    120.1       76    217.6    217.6       62     0.000     0.000     0.000     0.000       98        0        0        0        0       58       36    10.340       59     42.4    4.386     1.30       13        1     2019  Amityhall_SweetPotatoGDDCRO_Clay_S2_rainfed.PRM
