AquaCrop 6.0 (March 2017) - Output created on (date) : 3/5/2021   at (time) : 4:12:01 PM

    RunNr     Day1   Month1    Year1     Rain      ETo       GD     CO2      Irri   Infilt   Runoff    Drain   Upflow        E     E/Ex       Tr      TrW   Tr/Trx    SaltIn   SaltOut    SaltUp  SaltProf     Cycle   SaltStr  FertStr  WeedStr  TempStr   ExpStr   StoStr  BioMass  Brelative   HI     Yield     WPet     DayN   MonthN    YearN
                                           mm       mm    °C.day    ppm        mm       mm       mm       mm       mm       mm        %       mm       mm        %    ton/ha    ton/ha    ton/ha    ton/ha      days       %        %        %        %        %        %    ton/ha        %       %    ton/ha    kg/m3
   Tot(1)       31        5     1990    151.9    445.9   1495.8   354.39    317.2    148.5      3.4     32.9      0.0    159.6       77    279.8    274.6      100     0.000     0.000     0.000     0.000       71        0        0        0        0        0        0     7.801      100     53.9    4.203     0.96       11        8     1990  Essexvalley_TomatoGDDCRO_Sand_S1_riegoIRR.PRM
   Tot(2)       31        5     1991     68.6    442.2   1512.3   355.61    353.1     68.5      0.1      0.0      0.0    153.1       73    274.7    274.4      100     0.000     0.000     0.000     0.000       72        0        0        0        0        0        0     7.959      100     55.7    4.434     1.04       12        8     1991  Essexvalley_TomatoGDDCRO_Sand_S1_riegoIRR.PRM
   Tot(3)       31        5     1992    114.9    447.5   1520.8   356.45    331.5    114.5      0.4      9.6      0.0    160.6       77    282.3    282.5      100     0.000     0.000     0.000     0.000       72        0        0        0        0        0        0     8.004      100     55.7    4.459     1.01       12        8     1992  Essexvalley_TomatoGDDCRO_Sand_S1_riegoIRR.PRM
   Tot(4)       31        5     1993    141.7    438.0   1514.6   356.10    319.2    140.8      0.9     16.6      0.0    169.8       85    280.3    281.0      100     0.000     0.000     0.000     0.000       72        0        0        0        0        0        0     7.973      100     55.7    4.442     0.99       12        8     1993  Essexvalley_TomatoGDDCRO_Sand_S1_riegoIRR.PRM
   Tot(5)       31        5     1994     69.3    491.3   1503.8   358.83    392.1     69.3      0.0      0.0      0.0    163.4       70    304.7    304.5      100     0.000     0.000     0.000     0.000       71        0        0        0        0        0        0     7.896      100     53.9    4.254     0.91       11        8     1994  Essexvalley_TomatoGDDCRO_Sand_S1_riegoIRR.PRM
   Tot(6)       31        5     1995    202.8    433.2   1489.5   360.82    245.5    202.2      0.6      7.9      0.0    177.2       86    269.2    268.6      100     0.000     0.000     0.000     0.000       70        0        0        0        0        0        0     7.808      100     55.5    4.336     0.97       10        8     1995  Essexvalley_TomatoGDDCRO_Sand_S1_riegoIRR.PRM
   Tot(7)       31        5     1996    138.2    455.0   1501.7   362.61    299.1    138.2      0.0      0.0      0.0    166.0       75    277.9    278.4      100     0.000     0.000     0.000     0.000       71        0        0        0        0        0        0     7.980      100     53.9    4.300     0.97       11        8     1996  Essexvalley_TomatoGDDCRO_Sand_S1_riegoIRR.PRM
   Tot(8)       31        5     1997    185.1    423.2   1515.5   363.73    290.8    179.7      5.4     45.3      0.0    160.2       84    271.6    271.5      100     0.000     0.000     0.000     0.000       72        0        0        0        0        0        0     8.115      100     55.7    4.520     1.05       12        8     1997  Essexvalley_TomatoGDDCRO_Sand_S1_riegoIRR.PRM
   Tot(9)       31        5     1998    179.7    439.9   1480.8   366.70    275.4    175.4      4.3     29.3      0.0    161.8       75    266.2    265.8      100     0.000     0.000     0.000     0.000       69        0        0        0        0        0        0     7.819      100     53.7    4.197     0.98        9        8     1998  Essexvalley_TomatoGDDCRO_Sand_S1_riegoIRR.PRM
  Tot(10)       31        5     1999    225.2    437.8   1514.1   368.38    242.7    222.2      3.0     24.3      0.0    175.4       85    271.4    271.3      100     0.000     0.000     0.000     0.000       72        0        0        0        0        0        0     8.243      100     55.7    4.592     1.03       12        8     1999  Essexvalley_TomatoGDDCRO_Sand_S1_riegoIRR.PRM
  Tot(11)       31        5     2000    200.4    440.3   1510.2   369.55    269.2    197.5      2.9     30.0      0.0    167.4       81    275.8    276.2      100     0.000     0.000     0.000     0.000       72        0        0        0        0        0        0     8.262      100     55.7    4.602     1.04       12        8     2000  Essexvalley_TomatoGDDCRO_Sand_S1_riegoIRR.PRM
  Tot(12)       31        5     2001     87.3    454.7   1496.5   371.14    342.8     87.3      0.0      0.0      0.0    158.3       72    278.3    278.2      100     0.000     0.000     0.000     0.000       71        0        0        0        0        0        0     8.111      100     53.9    4.370     1.00       11        8     2001  Essexvalley_TomatoGDDCRO_Sand_S1_riegoIRR.PRM
  Tot(13)       31        5     2002    190.0    425.3   1526.1   373.28    317.0    182.2      7.8     71.9      0.0    157.8       84    275.9    276.0      100     0.000     0.000     0.000     0.000       73        0        0        0        0        0        0     8.423      100     57.5    4.846     1.12       13        8     2002  Essexvalley_TomatoGDDCRO_Sand_S1_riegoIRR.PRM
  Tot(14)       31        5     2003    218.1    443.1   1518.9   375.80    266.1    212.6      5.5     33.5      0.0    177.7       84    273.8    273.4      100     0.000     0.000     0.000     0.000       72        0        0        0        0        0        0     8.384      100     55.7    4.670     1.03       12        8     2003  Essexvalley_TomatoGDDCRO_Sand_S1_riegoIRR.PRM
  Tot(15)       31        5     2004    134.7    455.4   1504.2   377.52    323.6    132.2      2.5      0.0      0.0    161.8       75    280.9    283.1      100     0.000     0.000     0.000     0.000       71        0        0        0        0        0        0     8.267      100     53.9    4.454     1.01       11        8     2004  Essexvalley_TomatoGDDCRO_Sand_S1_riegoIRR.PRM
  Tot(16)       31        5     2005    535.3    385.5   1513.9   379.80    172.2    460.8     74.5    235.3      0.0    162.1       91    242.3    241.0      100     0.000     0.000     0.000     0.000       71        0        0        0        0        0        0     8.320      100     57.4    4.776     1.18       11        8     2005  Essexvalley_TomatoGDDCRO_Sand_S1_riegoIRR.PRM
  Tot(17)       31        5     2006    291.9    419.8   1505.0   381.90    231.5    282.2      9.7     86.5      0.0    165.8       87    267.8    267.4      100     0.000     0.000     0.000     0.000       71        0        0        0        0        0        0     8.345      100     53.9    4.496     1.04       11        8     2006  Essexvalley_TomatoGDDCRO_Sand_S1_riegoIRR.PRM
  Tot(18)       31        5     2007    170.1    434.3   1506.3   383.79    304.7    166.1      4.0     17.5      0.0    161.6       81    274.3    277.4      100     0.000     0.000     0.000     0.000       71        0        0        0        0        0        0     8.385      100     53.9    4.518     1.04       11        8     2007  Essexvalley_TomatoGDDCRO_Sand_S1_riegoIRR.PRM
  Tot(19)       31        5     2008    211.8    425.0   1498.6   385.60    270.0    198.8     13.0     44.8      0.0    164.1       83    266.5    263.6      100     0.000     0.000     0.000     0.000       71        0        0        0        0        0        0     8.390      100     53.9    4.521     1.05       11        8     2008  Essexvalley_TomatoGDDCRO_Sand_S1_riegoIRR.PRM
  Tot(20)       31        5     2009    168.3    422.7   1518.0   387.43    282.6    167.1      1.2     20.1      0.0    165.0       87    271.6    272.1      100     0.000     0.000     0.000     0.000       72        0        0        0        0        0        0     8.553      100     55.7    4.765     1.09       12        8     2009  Essexvalley_TomatoGDDCRO_Sand_S1_riegoIRR.PRM
  Tot(21)       31        5     2010    403.8    386.7   1515.1   389.90    103.3    393.3     10.5    118.0      0.0    154.7       81    230.6    230.1      100     0.000     0.000     0.000     0.000       71        0        0        0        0        0        0     8.527      100     55.7    4.750     1.23       11        8     2010  Essexvalley_TomatoGDDCRO_Sand_S1_riegoIRR.PRM
  Tot(22)       31        5     2011    422.0    393.6   1520.3   391.65    153.7    397.6     24.4    149.3      0.0    157.7       89    251.2    251.7      100     0.000     0.000     0.000     0.000       72        0        0        0        0        0        0     8.648      100     55.7    4.817     1.18       12        8     2011  Essexvalley_TomatoGDDCRO_Sand_S1_riegoIRR.PRM
  Tot(23)       31        5     2012    273.7    424.8   1502.3   393.85    246.0    259.3     14.4     84.4      0.0    162.5       80    259.9    259.6      100     0.000     0.000     0.000     0.000       71        0        0        0        0        0        0     8.554      100     53.9    4.609     1.09       11        8     2012  Essexvalley_TomatoGDDCRO_Sand_S1_riegoIRR.PRM
  Tot(24)       31        5     2013    176.7    412.7   1499.6   396.52    250.1    175.6      1.1     14.0      0.0    162.1       84    256.3    256.0      100     0.000     0.000     0.000     0.000       71        0        0        0        0        0        0     8.602      100     53.9    4.635     1.11       11        8     2013  Essexvalley_TomatoGDDCRO_Sand_S1_riegoIRR.PRM
  Tot(25)       31        5     2014    115.4    425.6   1497.5   398.65    309.1    115.1      0.3      2.3      0.0    162.4       82    266.1    265.9      100     0.000     0.000     0.000     0.000       71        0        0        0        0        0        0     8.621      100     53.9    4.645     1.08       11        8     2014  Essexvalley_TomatoGDDCRO_Sand_S1_riegoIRR.PRM
  Tot(26)       31        5     2015    161.2    415.8   1496.5   400.83    296.7    156.2      5.0     37.1      0.0    159.7       84    262.3    261.7      100     0.000     0.000     0.000     0.000       71        0        0        0        0        0        0     8.660      100     53.9    4.666     1.11       11        8     2015  Essexvalley_TomatoGDDCRO_Sand_S1_riegoIRR.PRM
  Tot(27)       31        5     2016    224.1    413.5   1493.5   404.21    256.4    216.9      7.2     54.3      0.0    166.7       87    259.0    260.1      100     0.000     0.000     0.000     0.000       70        0        0        0        0        0        0     8.580      100     55.5    4.765     1.12       10        8     2016  Essexvalley_TomatoGDDCRO_Sand_S1_riegoIRR.PRM
  Tot(28)       31        5     2017    253.8    404.0   1505.8   406.21    265.0    199.9     53.9     75.3      0.0    146.6       77    249.9    250.2      100     0.000     0.000     0.000     0.000       71        0        0        0        0        0        0     8.753      100     55.5    4.861     1.23       11        8     2017  Essexvalley_TomatoGDDCRO_Sand_S1_riegoIRR.PRM
  Tot(29)       31        5     2018    107.5    415.0   1514.2   408.21    309.8    106.8      0.7      8.8      0.0    153.2       81    261.2    260.7      100     0.000     0.000     0.000     0.000       72        0        0        0        0        0        0     8.918      100     55.7    4.968     1.20       12        8     2018  Essexvalley_TomatoGDDCRO_Sand_S1_riegoIRR.PRM
