AquaCrop 6.0 (March 2017) - Output created on (date) : 3/5/2021   at (time) : 4:08:33 PM

    RunNr     Day1   Month1    Year1     Rain      ETo       GD     CO2      Irri   Infilt   Runoff    Drain   Upflow        E     E/Ex       Tr      TrW   Tr/Trx    SaltIn   SaltOut    SaltUp  SaltProf     Cycle   SaltStr  FertStr  WeedStr  TempStr   ExpStr   StoStr  BioMass  Brelative   HI     Yield     WPet     DayN   MonthN    YearN
                                           mm       mm    °C.day    ppm        mm       mm       mm       mm       mm       mm        %       mm       mm        %    ton/ha    ton/ha    ton/ha    ton/ha      days       %        %        %        %        %        %    ton/ha        %       %    ton/ha    kg/m3
   Tot(1)        1       10     1990    334.7    336.3   1537.2   354.39     79.4    289.2     45.5     71.9      0.0    156.8       93    154.6    150.7       78     0.000     0.000     0.000     0.000       74        0        0        0        0        0       16     6.440       78     57.7    3.713     1.19       15       12     1990  Essexvalley_TomatoGDDCRO_Clay_S2_riegoIRR.PRM
   Tot(2)        1       10     1991    173.7    368.8   1534.0   355.61    238.4    149.7     24.0      9.4      0.0    167.4       95    226.5    226.6      100     0.000     0.000     0.000     0.000       74        0        0        0        0        0        0     8.242      100     57.7    4.752     1.21       15       12     1991  Essexvalley_TomatoGDDCRO_Clay_S2_riegoIRR.PRM
   Tot(3)        1       10     1992     53.8    375.1   1505.8   356.45    326.4     53.6      0.2      0.1      0.0    166.1       91    228.6    228.1      100     0.000     0.000     0.000     0.000       72        0        0        0        0        0        0     7.999      100     54.1    4.328     1.10       13       12     1992  Essexvalley_TomatoGDDCRO_Clay_S2_riegoIRR.PRM
   Tot(4)        1       10     1993    166.8    369.9   1520.5   356.10    242.7    148.7     18.1      9.2      0.0    167.7       94    226.8    228.0      100     0.000     0.000     0.000     0.000       73        0        0        0        0        0        0     8.146      100     55.9    4.552     1.15       14       12     1993  Essexvalley_TomatoGDDCRO_Clay_S2_riegoIRR.PRM
   Tot(5)        1       10     1994    199.7    368.5   1522.5   358.83    229.6    164.6     35.1     20.1      0.0    166.4       92    222.8    221.9      100     0.000     0.000     0.000     0.000       73        0        0        0        0        0        0     8.188      100     55.9    4.576     1.18       14       12     1994  Essexvalley_TomatoGDDCRO_Clay_S2_riegoIRR.PRM
   Tot(6)        1       10     1995    225.6    358.8   1527.1   360.82    236.9    201.4     24.2     66.5      0.0    159.9       97    227.0    227.0      100     0.000     0.000     0.000     0.000       73        0        0        0        0        0        0     8.234      100     57.5    4.737     1.22       14       12     1995  Essexvalley_TomatoGDDCRO_Clay_S2_riegoIRR.PRM
   Tot(7)        1       10     1996    256.0    361.2   1541.2   362.61    201.7    212.6     43.4     52.7      0.0    160.5       96    215.6    215.1       95     0.000     0.000     0.000     0.000       75        0        0        0        0        0        4     8.018       94     57.8    4.633     1.23       16       12     1996  Essexvalley_TomatoGDDCRO_Clay_S2_riegoIRR.PRM
   Tot(8)        1       10     1997    230.1    360.2   1527.9   363.73    220.6    203.2     26.9     53.0      0.0    162.2       96    225.0    226.6      100     0.000     0.000     0.000     0.000       73        0        0        0        0        0        0     8.269      100     57.5    4.757     1.23       14       12     1997  Essexvalley_TomatoGDDCRO_Clay_S2_riegoIRR.PRM
   Tot(9)        1       10     1998    375.8    343.2   1529.0   366.70    129.8    291.5     84.3     62.9      0.0    156.6       95    207.3    206.5       99     0.000     0.000     0.000     0.000       73        0        0        0        0        0        1     8.279       99     57.7    4.774     1.31       14       12     1998  Essexvalley_TomatoGDDCRO_Clay_S2_riegoIRR.PRM
  Tot(10)        1       10     1999    487.3    341.3   1540.4   368.38    139.8    371.2    116.1    166.9      0.0    153.2       98    206.1    205.9       95     0.000     0.000     0.000     0.000       76        0        0        0        0        0        5     8.303       94     57.9    4.808     1.34       17       12     1999  Essexvalley_TomatoGDDCRO_Clay_S2_riegoIRR.PRM
  Tot(11)        1       10     2000    339.5    366.8   1532.1   369.55    216.9    240.6     98.9     99.1      0.0    164.5       94    208.8    208.8       93     0.000     0.000     0.000     0.000       74        0        0        0        0        0        7     7.713       91     57.7    4.447     1.19       15       12     2000  Essexvalley_TomatoGDDCRO_Clay_S2_riegoIRR.PRM
  Tot(12)        1       10     2001    377.1    352.9   1533.0   371.14    142.7    304.3     72.8     84.4      0.0    163.3       95    214.3    214.2      100     0.000     0.000     0.000     0.000       74        0        0        0        0        0        0     8.647      100     57.7    4.986     1.32       15       12     2001  Essexvalley_TomatoGDDCRO_Clay_S2_riegoIRR.PRM
  Tot(13)        1       10     2002    171.3    361.4   1530.1   373.28    256.4    149.5     21.8     36.5      0.0    158.2       94    226.1    226.0      100     0.000     0.000     0.000     0.000       73        0        0        0        0        0        0     8.495      100     57.5    4.887     1.27       14       12     2002  Essexvalley_TomatoGDDCRO_Clay_S2_riegoIRR.PRM
  Tot(14)        1       10     2003    274.6    357.2   1516.6   375.80    155.8    235.7     38.9      7.6      0.0    162.5       96    220.6    221.0      100     0.000     0.000     0.000     0.000       72        0        0        0        0        0        0     8.405      100     57.5    4.835     1.26       13       12     2003  Essexvalley_TomatoGDDCRO_Clay_S2_riegoIRR.PRM
  Tot(15)        1       10     2004     81.4    405.7   1506.5   377.52    338.2     78.7      2.7      4.1      0.0    172.8       92    254.9    254.3      100     0.000     0.000     0.000     0.000       72        0        0        0        0        0        0     8.477      100     55.9    4.737     1.11       13       12     2004  Essexvalley_TomatoGDDCRO_Clay_S2_riegoIRR.PRM
  Tot(16)        1       10     2005    640.4    322.9   1539.0   379.80     98.9    460.7    179.7    225.1      0.0    137.9       99    212.9    214.5      100     0.000     0.000     0.000     0.000       74        0        0        0        0        0        0     8.751      100     57.7    5.046     1.44       15       12     2005  Essexvalley_TomatoGDDCRO_Clay_S2_riegoIRR.PRM
  Tot(17)        1       10     2006    248.4    353.6   1500.6   381.90    171.7    201.2     47.2     26.9      0.0    164.3       93    196.5    194.8       93     0.000     0.000     0.000     0.000       71        0        0        0        0        0        5     7.784       93     55.7    4.336     1.20       12       12     2006  Essexvalley_TomatoGDDCRO_Clay_S2_riegoIRR.PRM
  Tot(18)        1       10     2007    563.3    328.2   1553.2   383.79     90.8    419.3    144.0    193.3      0.0    142.2       99    188.3    192.8       89     0.000     0.000     0.000     0.000       74        0        0        0        0        0        8     7.785       89     59.0    4.593     1.40       16       12     2007  Essexvalley_TomatoGDDCRO_Clay_S2_riegoIRR.PRM
  Tot(19)        1       10     2008    311.4    339.7   1535.6   385.60    153.6    254.0     57.4     71.7      0.0    155.0       97    196.3    192.6       94     0.000     0.000     0.000     0.000       74        0        0        0        0        0        5     8.271       93     59.4    4.917     1.40       15       12     2008  Essexvalley_TomatoGDDCRO_Clay_S2_riegoIRR.PRM
  Tot(20)        1       10     2009    159.0    360.3   1496.5   387.43    227.9    147.4     11.6      6.0      0.0    164.5       95    219.7    219.0      100     0.000     0.000     0.000     0.000       71        0        0        0        0        0        0     8.500      100     55.7    4.735     1.23       12       12     2009  Essexvalley_TomatoGDDCRO_Clay_S2_riegoIRR.PRM
  Tot(21)        1       10     2010    304.8    345.7   1541.0   389.90    172.8    255.0     49.8     63.0      0.0    150.7       96    220.2    222.2      100     0.000     0.000     0.000     0.000       76        0        0        0        0        0        0     9.320      100     57.9    5.396     1.46       17       12     2010  Essexvalley_TomatoGDDCRO_Clay_S2_riegoIRR.PRM
  Tot(22)        1       10     2011    230.5    362.9   1529.8   391.65    194.3    211.9     18.6     28.7      0.0    163.0       98    229.9    228.3      100     0.000     0.000     0.000     0.000       73        0        0        0        0        0        0     8.872      100     57.7    5.116     1.30       14       12     2011  Essexvalley_TomatoGDDCRO_Clay_S2_riegoIRR.PRM
  Tot(23)        1       10     2012    251.6    354.6   1537.1   393.85    208.6    196.4     55.2     42.7      0.0    158.8       95    218.6    218.6      100     0.000     0.000     0.000     0.000       74        0        0        0        0        0        0     9.060      100     57.7    5.224     1.38       15       12     2012  Essexvalley_TomatoGDDCRO_Clay_S2_riegoIRR.PRM
  Tot(24)        1       10     2013    162.3    344.8   1498.8   396.52    206.5    149.4     12.9      3.8      0.0    156.1       95    211.0    210.7      100     0.000     0.000     0.000     0.000       71        0        0        0        0        0        0     8.635      100     55.7    4.810     1.31       12       12     2013  Essexvalley_TomatoGDDCRO_Clay_S2_riegoIRR.PRM
  Tot(25)        1       10     2014    212.2    353.3   1511.8   398.65    175.0    191.4     20.8      2.2      0.0    162.2       93    211.1    212.2      100     0.000     0.000     0.000     0.000       72        0        0        0        0        0        0     8.827      100     55.9    4.933     1.32       13       12     2014  Essexvalley_TomatoGDDCRO_Clay_S2_riegoIRR.PRM
  Tot(26)        1       10     2015    225.6    338.4   1507.2   400.83    142.0    209.0     16.6      4.8      0.0    157.5       96    204.0    203.3      100     0.000     0.000     0.000     0.000       71        0        0        0        0        0        0     8.738      100     55.7    4.868     1.35       12       12     2015  Essexvalley_TomatoGDDCRO_Clay_S2_riegoIRR.PRM
  Tot(27)        1       10     2016    301.9    326.5   1516.9   404.21     85.9    267.0     34.9     24.9      0.0    150.3       96    192.9    192.9       97     0.000     0.000     0.000     0.000       72        0        0        0        0        0        2     8.653       97     57.5    4.978     1.45       13       12     2016  Essexvalley_TomatoGDDCRO_Clay_S2_riegoIRR.PRM
  Tot(28)        1       10     2017    468.2    308.9   1534.9   406.21     48.7    377.6     90.6     93.1      0.0    148.6       98    179.4    181.2       98     0.000     0.000     0.000     0.000       73        0        0        0        0        0        2     8.904       98     57.7    5.134     1.57       14       12     2017  Essexvalley_TomatoGDDCRO_Clay_S2_riegoIRR.PRM
  Tot(29)        1       10     2018    163.0    346.4   1525.4   408.21    264.4    138.7     24.3     48.0      0.0    153.6       96    216.7    215.0      100     0.000     0.000     0.000     0.000       73        0        0        0        0        0        0     9.093      100     57.5    5.231     1.41       14       12     2018  Essexvalley_TomatoGDDCRO_Clay_S2_riegoIRR.PRM
