AquaCrop 6.0 (March 2017) - Output created on (date) : 3/5/2021   at (time) : 4:06:36 PM

    RunNr     Day1   Month1    Year1     Rain      ETo       GD     CO2      Irri   Infilt   Runoff    Drain   Upflow        E     E/Ex       Tr      TrW   Tr/Trx    SaltIn   SaltOut    SaltUp  SaltProf     Cycle   SaltStr  FertStr  WeedStr  TempStr   ExpStr   StoStr  BioMass  Brelative   HI     Yield     WPet     DayN   MonthN    YearN
                                           mm       mm    °C.day    ppm        mm       mm       mm       mm       mm       mm        %       mm       mm        %    ton/ha    ton/ha    ton/ha    ton/ha      days       %        %        %        %        %        %    ton/ha        %       %    ton/ha    kg/m3
   Tot(1)        1       10     1990    343.3    477.9   1301.2   355.00      0.0    341.1      2.2     52.7      0.0     75.0       51    361.1    361.1       99     0.000     0.000     0.000     0.000       99        0        0        0        0        0        1    15.831      100     53.6    8.487     1.95       13        1     1991  Essexvalley_SweetPotatoGDDCRO_SandyLoam_S2_rainfed.PRM
   Tot(2)        1       10     1991    186.5    510.5   1301.4   356.03      0.0    183.2      3.3      0.0      0.0     96.7       61    270.9    270.9       70     0.000     0.000     0.000     0.000      101        0        0        0        0       11       25    11.039       69     42.0    4.634     1.26       15        1     1992  Essexvalley_SweetPotatoGDDCRO_SandyLoam_S2_rainfed.PRM
   Tot(3)        1       10     1992     80.8    518.5   1300.6   356.27      0.0     80.8      0.0      0.0      0.0     81.0       42    176.4    176.4       51     0.000     0.000     0.000     0.000       96        0        0        0        0       63       40     6.898       45     33.0    2.277     0.89       10        1     1993  Essexvalley_SweetPotatoGDDCRO_SandyLoam_S2_rainfed.PRM
   Tot(4)        1       10     1993    197.7    508.3   1303.0   357.47      0.0    196.8      0.9      5.0      0.0    102.0       62    267.6    267.6       70     0.000     0.000     0.000     0.000       99        0        0        0        0       50       23    11.090       70     44.0    4.882     1.32       13        1     1994  Essexvalley_SweetPotatoGDDCRO_SandyLoam_S2_rainfed.PRM
   Tot(5)        1       10     1994    216.2    508.8   1295.3   359.82      0.0    211.3      4.9      5.0      0.0     90.4       57    296.5    296.5       77     0.000     0.000     0.000     0.000       98        0        0        0        0        2       19    12.221       78     45.6    5.574     1.45       12        1     1995  Essexvalley_SweetPotatoGDDCRO_SandyLoam_S2_rainfed.PRM
   Tot(6)        1       10     1995    250.8    492.8   1300.4   361.72      0.0    245.8      5.0     80.8      0.0    118.9       73    225.4    225.4       62     0.000     0.000     0.000     0.000       96        0        0        0        0       57       31     9.176       59     41.8    3.839     1.12       11        1     1996  Essexvalley_SweetPotatoGDDCRO_SandyLoam_S2_rainfed.PRM
   Tot(7)        1       10     1996    268.9    514.0   1299.9   363.17      0.0    262.3      6.6      3.7      0.0    110.4       76    329.2    329.2       81     0.000     0.000     0.000     0.000      102        0        0        0        0       11       15    13.613       82     47.1    6.412     1.46       16        1     1997  Essexvalley_SweetPotatoGDDCRO_SandyLoam_S2_rainfed.PRM
   Tot(8)        1       10     1997    267.6    493.2   1296.7   365.22      0.0    260.1      7.5     66.7      0.0    107.9       71    265.1    265.1       71     0.000     0.000     0.000     0.000       96        0        0        0        0       20       23    11.006       70     42.5    4.674     1.25       11        1     1998  Essexvalley_SweetPotatoGDDCRO_SandyLoam_S2_rainfed.PRM
   Tot(9)        1       10     1998    423.0    474.5   1300.0   367.54      0.0    405.3     17.7     95.4      0.0     99.3       70    359.8    359.8       98     0.000     0.000     0.000     0.000       98        0        0        0        0        0        2    15.965       98     53.3    8.509     1.86       12        1     1999  Essexvalley_SweetPotatoGDDCRO_SandyLoam_S2_rainfed.PRM
  Tot(10)        1       10     1999    511.5    512.1   1301.2   368.97      0.0    479.6     31.9    224.0      0.0    123.6       90    315.1    315.1       77     0.000     0.000     0.000     0.000      108        0        0        0        0        0       18    14.263       80     46.1    6.570     1.50       22        1     2000  Essexvalley_SweetPotatoGDDCRO_SandyLoam_S2_rainfed.PRM
  Tot(11)        1       10     2000    461.5    495.6   1298.6   370.35      0.0    436.3     25.2     45.4      0.0     82.9       52    349.0    349.0       94     0.000     0.000     0.000     0.000      101        0        0        0        0       29        5    15.857       94     52.5    8.323     1.93       16        1     2001  Essexvalley_SweetPotatoGDDCRO_SandyLoam_S2_rainfed.PRM
  Tot(12)        1       10     2001    507.6    474.8   1300.2   372.21      0.0    490.7     16.9    128.8      0.0    111.2       76    361.6    361.6      100     0.000     0.000     0.000     0.000      100        0        0        0        0        0        0    16.872      100     53.7    9.067     1.92       14        1     2002  Essexvalley_SweetPotatoGDDCRO_SandyLoam_S2_rainfed.PRM
  Tot(13)        1       10     2002    231.9    483.9   1294.9   374.54      0.0    227.1      4.8     38.0      0.0    102.3       66    251.5    251.5       70     0.000     0.000     0.000     0.000       96        0        0        0        0       55       24    10.806       68     44.1    4.766     1.35       10        1     2003  Essexvalley_SweetPotatoGDDCRO_SandyLoam_S2_rainfed.PRM
  Tot(14)        1       10     2003    328.1    494.5   1300.3   376.66      0.0    327.1      1.0      5.4      0.0    104.3       73    374.3    374.3       97     0.000     0.000     0.000     0.000       96        0        0        0        0        1        3    15.738       97     53.0    8.349     1.75       10        1     2004  Essexvalley_SweetPotatoGDDCRO_SandyLoam_S2_rainfed.PRM
  Tot(15)        1       10     2004    153.6    540.4   1303.2   378.66      0.0    153.6      0.0      3.1      0.0     76.3       44    246.8    246.8       61     0.000     0.000     0.000     0.000       97        0        0        0        0       55       32     9.738       59     38.4    3.740     1.16       11        1     2005  Essexvalley_SweetPotatoGDDCRO_SandyLoam_S2_rainfed.PRM
  Tot(16)        1       10     2005    746.8    451.8   1301.8   380.85      0.0    686.7     60.1    322.8      0.0    116.5       97    362.4    362.4      100     0.000     0.000     0.000     0.000      100        0        0        0        0        0        0    17.014      100     55.0    9.358     1.95       15        1     2006  Essexvalley_SweetPotatoGDDCRO_SandyLoam_S2_rainfed.PRM
  Tot(17)        1       10     2006    263.9    483.4   1303.0   382.85      0.0    260.2      3.7      0.0      0.0     78.3       53    347.3    347.3       94     0.000     0.000     0.000     0.000       93        0        0        0        0        0        4    15.246       96     52.6    8.013     1.88        7        1     2007  Essexvalley_SweetPotatoGDDCRO_SandyLoam_S2_rainfed.PRM
  Tot(18)        1       10     2007    574.1    468.2   1302.7   384.70      0.0    535.7     38.4    271.3      0.0    116.6       94    323.9    323.9       86     0.000     0.000     0.000     0.000      101        0        0        0        0        0       11    15.004       87     50.7    7.601     1.73       16        1     2008  Essexvalley_SweetPotatoGDDCRO_SandyLoam_S2_rainfed.PRM
  Tot(19)        1       10     2008    325.1    486.5   1305.4   386.51      0.0    316.5      8.6     82.9      0.0    112.5       81    304.0    304.0       80     0.000     0.000     0.000     0.000      101        0        0        0        0        0       16    14.163       81     46.7    6.612     1.60       15        1     2009  Essexvalley_SweetPotatoGDDCRO_SandyLoam_S2_rainfed.PRM
  Tot(20)        1       10     2009    248.9    480.2   1301.9   388.66      0.0    245.2      3.7      0.0      0.0    110.8       75    291.0    291.0       80     0.000     0.000     0.000     0.000       95        0        0        0        0        7       15    13.211       80     48.5    6.413     1.60        9        1     2010  Essexvalley_SweetPotatoGDDCRO_SandyLoam_S2_rainfed.PRM
  Tot(21)        1       10     2010    327.1    498.5   1299.7   390.77      0.0    320.9      6.2     76.4      0.0    117.1       85    307.0    307.0       78     0.000     0.000     0.000     0.000      106        0        0        0        0        0       19    14.569       78     46.3    6.747     1.59       21        1     2011  Essexvalley_SweetPotatoGDDCRO_SandyLoam_S2_rainfed.PRM
  Tot(22)        1       10     2011    244.9    496.3   1294.8   392.75      0.0    243.2      1.7     34.6      0.0    130.9       92    260.0    260.0       68     0.000     0.000     0.000     0.000       97        0        0        0        0       10       27    11.176       67     41.6    4.647     1.19       11        1     2012  Essexvalley_SweetPotatoGDDCRO_SandyLoam_S2_rainfed.PRM
  Tot(23)        1       10     2012    261.2    493.6   1296.6   395.19      0.0    249.1     12.1     60.4      0.0     96.4       67    276.4    276.4       73     0.000     0.000     0.000     0.000       98        0        0        0        0        1       22    12.636       74     43.4    5.488     1.48       12        1     2013  Essexvalley_SweetPotatoGDDCRO_SandyLoam_S2_rainfed.PRM
  Tot(24)        1       10     2013    186.1    474.9   1300.2   397.58      0.0    186.1      0.0      3.6      0.0     85.0       61    276.5    276.5       76     0.000     0.000     0.000     0.000       94        0        0        0        0        1       19    12.603       77     45.7    5.753     1.59        8        1     2014  Essexvalley_SweetPotatoGDDCRO_SandyLoam_S2_rainfed.PRM
  Tot(25)        1       10     2014    264.0    479.6   1298.5   399.74      0.0    262.7      1.3      0.0      0.0     86.2       58    341.9    341.9       94     0.000     0.000     0.000     0.000       96        0        0        0        0        1        4    16.173       95     52.4    8.479     1.98       10        1     2015  Essexvalley_SweetPotatoGDDCRO_SandyLoam_S2_rainfed.PRM
  Tot(26)        1       10     2015    253.0    457.8   1296.7   402.52      0.0    253.0      0.0      0.0      0.0    106.0       77    318.0    318.0       91     0.000     0.000     0.000     0.000       93        0        0        0        0        1        8    15.171       92     51.3    7.789     1.84        7        1     2016  Essexvalley_SweetPotatoGDDCRO_SandyLoam_S2_rainfed.PRM
  Tot(27)        1       10     2016    312.8    451.0   1299.7   405.21      0.0    308.6      4.2     29.5      0.0    113.9       86    329.8    329.8       95     0.000     0.000     0.000     0.000       95        0        0        0        0        0        4    16.231       96     52.6    8.537     1.93        9        1     2017  Essexvalley_SweetPotatoGDDCRO_SandyLoam_S2_rainfed.PRM
  Tot(28)        1       10     2017    562.0    423.3   1294.3   407.21      0.0    543.9     18.1    139.3      0.0    115.1       89    324.6    320.7      100     0.000     0.000     0.000     0.000       98        0        0        0        0        0        0    17.802      100     53.8    9.581     2.18       11        1     2018  Essexvalley_SweetPotatoGDDCRO_SandyLoam_S2_rainfed.PRM
  Tot(29)        1       10     2018    186.4    477.5   1302.6   409.21      0.0    179.0      7.4     63.1      0.0    110.7       68    184.6    188.5       54     0.000     0.000     0.000     0.000       96        0        0        0        0       59       37     8.653       50     36.1    3.124     1.06       11        1     2019  Essexvalley_SweetPotatoGDDCRO_SandyLoam_S2_rainfed.PRM
