AquaCrop 6.0 (March 2017) - Output created on (date) : 3/5/2021   at (time) : 4:02:13 PM

    RunNr     Day1   Month1    Year1     Rain      ETo       GD     CO2      Irri   Infilt   Runoff    Drain   Upflow        E     E/Ex       Tr      TrW   Tr/Trx    SaltIn   SaltOut    SaltUp  SaltProf     Cycle   SaltStr  FertStr  WeedStr  TempStr   ExpStr   StoStr  BioMass  Brelative   HI     Yield     WPet     DayN   MonthN    YearN
                                           mm       mm    °C.day    ppm        mm       mm       mm       mm       mm       mm        %       mm       mm        %    ton/ha    ton/ha    ton/ha    ton/ha      days       %        %        %        %        %        %    ton/ha        %       %    ton/ha    kg/m3
   Tot(1)        1        5     1990    210.7    602.1   1297.2   354.39      0.0    209.6      1.1      0.0      0.0     85.4       42    301.2    301.2       69     0.000     0.000     0.000     0.000       92        0        0        0        0       25       24     9.847       68     44.5    4.379     1.14        7        8     1990  Essexvalley_SweetPotatoGDDCRO_Loam_S1_rainfed.PRM
   Tot(2)        1        5     1991    176.2    582.1   1293.5   355.61      0.0    174.7      1.5     21.2      0.0    116.3       61    216.5    216.0       50     0.000     0.000     0.000     0.000       95        0        0        0        0       55       39     7.192       49     32.1    2.311     0.69        8        8     1991  Essexvalley_SweetPotatoGDDCRO_Loam_S1_rainfed.PRM
   Tot(3)        1        5     1992    177.2    598.3   1302.1   356.45      0.0    177.1      0.1      0.0      0.0     98.0       48    253.8    254.4       59     0.000     0.000     0.000     0.000       93        0        0        0        0       51       32     8.437       58     38.0    3.210     0.92        8        8     1992  Essexvalley_SweetPotatoGDDCRO_Loam_S1_rainfed.PRM
   Tot(4)        1        5     1993    326.2    574.6   1300.5   356.10      0.0    322.7      3.5     51.1      0.0    153.5       90    297.9    297.9       67     0.000     0.000     0.000     0.000       95        0        0        0        0       10       24    10.122       68     42.2    4.267     0.95       10        8     1993  Essexvalley_SweetPotatoGDDCRO_Loam_S1_rainfed.PRM
   Tot(5)        1        5     1994    132.3    646.9   1302.6   358.83      0.0    132.3      0.0      0.0      0.0    118.5       49    188.6    188.6       43     0.000     0.000     0.000     0.000       92        0        0        0        0       62       46     5.588       39     27.5    1.539     0.50        6        8     1994  Essexvalley_SweetPotatoGDDCRO_Loam_S1_rainfed.PRM
   Tot(6)        1        5     1995    219.3    592.7   1302.0   360.82      0.0    219.2      0.1      5.5      0.0     93.4       45    289.8    289.8       68     0.000     0.000     0.000     0.000       90        0        0        0        0       54       25     9.363       65     44.6    4.173     1.10        5        8     1995  Essexvalley_SweetPotatoGDDCRO_Loam_S1_rainfed.PRM
   Tot(7)        1        5     1996    214.7    606.4   1295.4   362.61      0.0    213.7      1.0      8.6      0.0    121.7       55    256.6    256.6       59     0.000     0.000     0.000     0.000       92        0        0        0        0       57       31     8.231       56     36.8    3.031     0.81        7        8     1996  Essexvalley_SweetPotatoGDDCRO_Loam_S1_rainfed.PRM
   Tot(8)        1        5     1997    231.2    603.3   1304.5   363.73      0.0    227.1      4.1     29.0      0.0     56.0       27    319.8    319.8       74     0.000     0.000     0.000     0.000       94        0        0        0        0        8       20    11.147       74     45.2    5.039     1.34        8        8     1997  Essexvalley_SweetPotatoGDDCRO_Loam_S1_rainfed.PRM
   Tot(9)        1        5     1998    227.0    595.1   1307.4   366.70      0.0    226.5      0.5      0.0      0.0     79.6       38    311.7    311.7       73     0.000     0.000     0.000     0.000       88        0        0        0        0       40       21    10.068       70     48.4    4.869     1.25        3        8     1998  Essexvalley_SweetPotatoGDDCRO_Loam_S1_rainfed.PRM
  Tot(10)        1        5     1999    347.5    590.4   1297.1   368.38      0.0    345.7      1.8     18.1      0.0    117.8       62    381.5    381.5       86     0.000     0.000     0.000     0.000       93        0        0        0        0        6       11    13.053       86     49.1    6.411     1.29        8        8     1999  Essexvalley_SweetPotatoGDDCRO_Loam_S1_rainfed.PRM
  Tot(11)        1        5     2000    238.2    610.5   1296.9   369.55      0.0    238.2      0.0      0.0      0.0     87.3       42    311.2    311.2       69     0.000     0.000     0.000     0.000       93        0        0        0        0       35       23    10.452       69     44.3    4.626     1.17        8        8     2000  Essexvalley_SweetPotatoGDDCRO_Loam_S1_rainfed.PRM
  Tot(12)        1        5     2001    249.4    607.1   1306.1   371.14      0.0    245.3      4.1     45.7      0.0    165.5       73    204.5    204.5       50     0.000     0.000     0.000     0.000       93        0        0        0        0       61       40     6.699       44     31.6    2.114     0.57        8        8     2001  Essexvalley_SweetPotatoGDDCRO_Loam_S1_rainfed.PRM
  Tot(13)        1        5     2002    418.8    573.9   1306.7   373.28      0.0    389.9     28.9    198.3      0.0     77.9       42    291.9    291.9       69     0.000     0.000     0.000     0.000       96        0        0        0        0        9       23    11.008       70     42.9    4.724     1.28       10        8     2002  Essexvalley_SweetPotatoGDDCRO_Loam_S1_rainfed.PRM
  Tot(14)        1        5     2003    325.4    603.4   1304.9   375.80      0.0    320.5      4.9     22.2      0.0     85.3       43    382.0    382.0       85     0.000     0.000     0.000     0.000       93        0        0        0        0        5       12    13.131       85     48.6    6.376     1.37        7        8     2003  Essexvalley_SweetPotatoGDDCRO_Loam_S1_rainfed.PRM
  Tot(15)        1        5     2004    158.5    612.1   1301.2   377.52      0.0    158.5      0.0      0.0      0.0    114.1       48    216.8    216.8       53     0.000     0.000     0.000     0.000       92        0        0        0        0       63       37     7.271       48     35.2    2.557     0.78        6        8     2004  Essexvalley_SweetPotatoGDDCRO_Loam_S1_rainfed.PRM
  Tot(16)        1        5     2005    680.1    528.8   1300.6   379.80      0.0    617.8     62.3    188.3      0.0    130.8       77    396.6    396.6      100     0.000     0.000     0.000     0.000       92        0        0        0        0        2       -0    15.418      100     53.8    8.296     1.57        6        8     2005  Essexvalley_SweetPotatoGDDCRO_Loam_S1_rainfed.PRM
  Tot(17)        1        5     2006    327.1    580.7   1300.1   381.90      0.0    319.7      7.4     32.5      0.0     76.1       39    366.3    366.3       86     0.000     0.000     0.000     0.000       91        0        0        0        0        3       11    13.237       86     50.5    6.685     1.52        6        8     2006  Essexvalley_SweetPotatoGDDCRO_Loam_S1_rainfed.PRM
  Tot(18)        1        5     2007    343.9    565.8   1303.7   383.79      0.0    332.5     11.4     69.2      0.0    131.9       81    303.1    303.1       69     0.000     0.000     0.000     0.000       92        0        0        0        0        9       23    10.907       71     41.2    4.498     1.04        6        8     2007  Essexvalley_SweetPotatoGDDCRO_Loam_S1_rainfed.PRM
  Tot(19)        1        5     2008    267.1    582.5   1301.2   385.60      0.0    265.4      1.7      0.0      0.0     71.8       38    353.9    353.9       82     0.000     0.000     0.000     0.000       93        0        0        0        0        2       14    12.945       83     48.6    6.297     1.48        7        8     2008  Essexvalley_SweetPotatoGDDCRO_Loam_S1_rainfed.PRM
  Tot(20)        1        5     2009    307.5    572.6   1301.3   387.43      0.0    305.4      2.1     30.8      0.0    119.0       65    336.6    336.6       79     0.000     0.000     0.000     0.000       94        0        0        0        0        1       16    12.725       80     46.6    5.932     1.30        9        8     2009  Essexvalley_SweetPotatoGDDCRO_Loam_S1_rainfed.PRM
  Tot(21)        1        5     2010    559.2    527.0   1305.6   389.90      0.0    531.3     27.9     64.4      0.0     96.1       55    390.7    390.7      100     0.000     0.000     0.000     0.000       91        0        0        0        0        1        0    15.660      100     53.7    8.417     1.74        5        8     2010  Essexvalley_SweetPotatoGDDCRO_Loam_S1_rainfed.PRM
  Tot(22)        1        5     2011    477.6    552.7   1304.3   391.65      0.0    459.3     18.3     95.8      0.0     79.5       42    403.8    403.8      100     0.000     0.000     0.000     0.000       94        0        0        0        0        2        0    16.073      100     53.8    8.646     1.80        8        8     2011  Essexvalley_SweetPotatoGDDCRO_Loam_S1_rainfed.PRM
  Tot(23)        1        5     2012    329.9    574.9   1298.5   393.85      0.0    324.6      5.3      1.4      0.0    101.5       55    352.6    352.6       82     0.000     0.000     0.000     0.000       91        0        0        0        0       13       14    12.750       82     47.2    6.017     1.33        6        8     2012  Essexvalley_SweetPotatoGDDCRO_Loam_S1_rainfed.PRM
  Tot(24)        1        5     2013    250.8    566.6   1301.4   396.52      0.0    250.8      0.0      0.0      0.0     95.3       52    333.1    333.1       79     0.000     0.000     0.000     0.000       92        0        0        0        0        5       16    12.806       80     47.1    6.035     1.41        7        8     2013  Essexvalley_SweetPotatoGDDCRO_Loam_S1_rainfed.PRM
  Tot(25)        1        5     2014    220.5    577.1   1301.6   398.65      0.0    216.4      4.1     18.4      0.0    125.2       63    247.3    247.3       60     0.000     0.000     0.000     0.000       92        0        0        0        0       54       31     9.302       58     37.5    3.486     0.94        7        8     2014  Essexvalley_SweetPotatoGDDCRO_Loam_S1_rainfed.PRM
  Tot(26)        1        5     2015    194.5    575.8   1303.9   400.83      0.0    193.8      0.7      0.0      0.0     77.0       40    294.6    294.6       71     0.000     0.000     0.000     0.000       93        0        0        0        0       12       23    11.392       71     44.3    5.050     1.36        7        8     2015  Essexvalley_SweetPotatoGDDCRO_Loam_S1_rainfed.PRM
  Tot(27)        1        5     2016    298.6    560.6   1303.1   404.21      0.0    297.4      1.2      0.0      0.0    102.7       58    341.4    341.4       81     0.000     0.000     0.000     0.000       90        0        0        0        0        0       14    12.971       82     48.3    6.268     1.42        4        8     2016  Essexvalley_SweetPotatoGDDCRO_Loam_S1_rainfed.PRM
  Tot(28)        1        5     2017    450.2    535.5   1307.1   406.21      0.0    404.1     46.1    113.0      0.0     97.7       58    350.7    350.7       87     0.000     0.000     0.000     0.000       92        0        0        0        0       20       10    14.055       87     50.3    7.064     1.58        7        8     2017  Essexvalley_SweetPotatoGDDCRO_Loam_S1_rainfed.PRM
  Tot(29)        1        5     2018    269.8    550.9   1302.7   408.21      0.0    267.3      2.5     46.4      0.0    129.5       76    268.3    268.3       65     0.000     0.000     0.000     0.000       94        0        0        0        0       12       26    10.881       66     41.3    4.489     1.13        9        8     2018  Essexvalley_SweetPotatoGDDCRO_Loam_S1_rainfed.PRM
