AquaCrop 6.0 (March 2017) - Output created on (date) : 3/5/2021   at (time) : 4:13:43 PM

    RunNr     Day1   Month1    Year1     Rain      ETo       GD     CO2      Irri   Infilt   Runoff    Drain   Upflow        E     E/Ex       Tr      TrW   Tr/Trx    SaltIn   SaltOut    SaltUp  SaltProf     Cycle   SaltStr  FertStr  WeedStr  TempStr   ExpStr   StoStr  BioMass  Brelative   HI     Yield     WPet     DayN   MonthN    YearN
                                           mm       mm    °C.day    ppm        mm       mm       mm       mm       mm       mm        %       mm       mm        %    ton/ha    ton/ha    ton/ha    ton/ha      days       %        %        %        %        %        %    ton/ha        %       %    ton/ha    kg/m3
   Tot(1)       31       10     1990    261.6    346.2   1544.5   355.00      0.0    259.2      2.4     67.5      0.0    128.6       83    172.4    171.6       77     0.000     0.000     0.000     0.000       76        0        0        0        0        0       15     6.718       80     55.6    3.733     1.24       16        1     1991  Essexvalley_TomatoGDDCRO_SandyLoam_S2_rainfed.PRM
   Tot(2)       31       10     1991    115.1    365.0   1534.8   356.03      0.0    111.2      3.9     27.3      0.0     88.9       44    109.3    109.8       59     0.000     0.000     0.000     0.000       76        0        0        0        0       52       33     4.082       48     48.4    1.975     1.00       16        1     1992  Essexvalley_TomatoGDDCRO_SandyLoam_S2_rainfed.PRM
   Tot(3)       31       10     1992     47.0    385.9   1523.3   356.27      0.0     47.0      0.0      0.0      0.0     64.2       25     91.1     91.0       59     0.000     0.000     0.000     0.000       74        0        0        0        0       59       31     3.141       38     49.8    1.564     1.01       14        1     1993  Essexvalley_TomatoGDDCRO_SandyLoam_S2_rainfed.PRM
   Tot(4)       31       10     1993    134.9    364.3   1529.0   357.47      0.0    134.2      0.7      6.5      0.0     83.2       43    147.7    144.7       72     0.000     0.000     0.000     0.000       75        0        0        0        0       37       19     5.721       68     52.8    3.018     1.31       15        1     1994  Essexvalley_TomatoGDDCRO_SandyLoam_S2_rainfed.PRM
   Tot(5)       31       10     1994    162.4    366.6   1528.6   359.82      0.0    155.1      7.3     51.6      0.0    114.5       55    101.7    104.9       56     0.000     0.000     0.000     0.000       75        0        0        0        0       54       35     3.637       43     47.4    1.725     0.80       15        1     1995  Essexvalley_TomatoGDDCRO_SandyLoam_S2_rainfed.PRM
   Tot(6)       31       10     1995     91.3    371.1   1539.8   361.72      0.0     91.3      0.0      0.0      0.0     92.6       44    111.4    111.2       59     0.000     0.000     0.000     0.000       75        0        0        0        0       50       30     4.194       50     49.3    2.067     1.01       15        1     1996  Essexvalley_TomatoGDDCRO_SandyLoam_S2_rainfed.PRM
   Tot(7)       31       10     1996    177.9    374.4   1546.1   363.17      0.0    170.8      7.1     68.3      0.0     99.0       52    117.9    118.1       58     0.000     0.000     0.000     0.000       77        0        0        0        0       48       33     4.302       49     49.2    2.118     0.98       17        1     1997  Essexvalley_TomatoGDDCRO_SandyLoam_S2_rainfed.PRM
   Tot(8)       31       10     1997    119.4    362.2   1525.4   365.22      0.0    119.4      0.0      0.0      0.0    101.3       52    126.4    124.7       63     0.000     0.000     0.000     0.000       74        0        0        0        0       47       27     4.764       57     48.8    2.324     1.02       14        1     1998  Essexvalley_TomatoGDDCRO_SandyLoam_S2_rainfed.PRM
   Tot(9)       31       10     1998    233.9    352.2   1537.6   367.54      0.0    227.6      6.3     26.9      0.0    119.6       70    182.0    182.4       85     0.000     0.000     0.000     0.000       75        0        0        0        0       28       11     7.192       84     55.4    3.985     1.32       15        1     1999  Essexvalley_TomatoGDDCRO_SandyLoam_S2_rainfed.PRM
  Tot(10)       31       10     1999    206.5    374.1   1556.8   368.97      0.0    199.7      6.8     84.0      0.0    106.1       56    123.5    124.9       59     0.000     0.000     0.000     0.000       79        0        0        0        0       49       31     4.788       52     51.6    2.473     1.08       20        1     2000  Essexvalley_TomatoGDDCRO_SandyLoam_S2_rainfed.PRM
  Tot(11)       31       10     2000    371.0    349.0   1537.4   370.35      0.0    346.8     24.2    121.7      0.0     80.2       43    194.7    190.9      100     0.000     0.000     0.000     0.000       77        0        0        0        0        7       -0     8.541       96     57.9    4.945     1.80       17        1     2001  Essexvalley_TomatoGDDCRO_SandyLoam_S2_rainfed.PRM
  Tot(12)       31       10     2001    337.2    341.5   1556.4   372.21      0.0    324.2     13.0     90.3      0.0    129.7       75    180.4    184.2       91     0.000     0.000     0.000     0.000       76        0        0        0        0       32        7     7.528       86     58.4    4.393     1.42       17        1     2002  Essexvalley_TomatoGDDCRO_SandyLoam_S2_rainfed.PRM
  Tot(13)       31       10     2002    122.2    357.9   1532.2   374.54      0.0    122.2      0.0      0.0      0.0     95.1       48    131.7    130.8       70     0.000     0.000     0.000     0.000       74        0        0        0        0       50       21     5.192       60     52.1    2.706     1.19       14        1     2003  Essexvalley_TomatoGDDCRO_SandyLoam_S2_rainfed.PRM
  Tot(14)       31       10     2003    238.7    373.6   1535.2   376.66      0.0    237.6      1.1     14.2      0.0    123.9       70    201.2    200.9       87     0.000     0.000     0.000     0.000       75        0        0        0        0        4        9     7.685       87     55.9    4.296     1.32       15        1     2004  Essexvalley_TomatoGDDCRO_SandyLoam_S2_rainfed.PRM
  Tot(15)       31       10     2004    121.9    396.2   1527.0   378.66      0.0    121.9      0.0      0.0      0.0     98.7       38    125.8    126.2       72     0.000     0.000     0.000     0.000       75        0        0        0        0       53       20     4.684       53     53.9    2.526     1.13       15        1     2005  Essexvalley_TomatoGDDCRO_SandyLoam_S2_rainfed.PRM
  Tot(16)       31       10     2005    245.8    347.6   1541.8   380.85      0.0    243.4      2.4     19.8      0.0    114.6       67    191.2    189.4       92     0.000     0.000     0.000     0.000       76        0        0        0        0       27        6     8.186       91     58.5    4.791     1.57       16        1     2006  Essexvalley_TomatoGDDCRO_SandyLoam_S2_rainfed.PRM
  Tot(17)       31       10     2006    179.3    361.0   1518.4   382.85      0.0    175.6      3.7     43.5      0.0    111.6       63    133.9    136.2       63     0.000     0.000     0.000     0.000       73        0        0        0        0       40       26     5.221       61     48.5    2.533     1.03       13        1     2007  Essexvalley_TomatoGDDCRO_SandyLoam_S2_rainfed.PRM
  Tot(18)       31       10     2007    266.1    355.2   1558.8   384.70      0.0    249.5     16.6    112.8      0.0    114.1       65    135.0    135.4       66     0.000     0.000     0.000     0.000       76        0        0        0        0       45       27     5.425       60     53.4    2.895     1.16       17        1     2008  Essexvalley_TomatoGDDCRO_SandyLoam_S2_rainfed.PRM
  Tot(19)       31       10     2008    209.2    356.8   1556.0   386.51      0.0    200.3      8.9     87.9      0.0    112.6       61    111.0    111.0       58     0.000     0.000     0.000     0.000       76        0        0        0        0       48       33     4.547       50     48.8    2.219     1.01       17        1     2009  Essexvalley_TomatoGDDCRO_SandyLoam_S2_rainfed.PRM
  Tot(20)       31       10     2009    153.9    354.9   1530.1   388.66      0.0    150.9      3.0      0.0      0.0     89.4       46    154.9    153.2       81     0.000     0.000     0.000     0.000       75        0        0        0        0       41       14     6.527       72     55.5    3.625     1.48       15        1     2010  Essexvalley_TomatoGDDCRO_SandyLoam_S2_rainfed.PRM
  Tot(21)       31       10     2010    136.5    361.3   1550.6   390.77      0.0    136.1      0.4     12.8      0.0     96.0       52    138.1    139.8       68     0.000     0.000     0.000     0.000       79        0        0        0        0       46       24     6.007       62     53.3    3.201     1.37       20        1     2011  Essexvalley_TomatoGDDCRO_SandyLoam_S2_rainfed.PRM
  Tot(22)       31       10     2011     64.1    375.7   1533.7   392.75      0.0     64.1      0.0      1.6      0.0     79.9       32     94.4     94.2       60     0.000     0.000     0.000     0.000       75        0        0        0        0       59       32     3.667       40     49.3    1.808     1.04       15        1     2012  Essexvalley_TomatoGDDCRO_SandyLoam_S2_rainfed.PRM
  Tot(23)       31       10     2012     99.3    365.5   1533.0   395.19      0.0     99.1      0.2      6.3      0.0     90.1       48    117.1    117.1       59     0.000     0.000     0.000     0.000       75        0        0        0        0       45       30     4.871       54     49.9    2.430     1.17       15        1     2013  Essexvalley_TomatoGDDCRO_SandyLoam_S2_rainfed.PRM
  Tot(24)       31       10     2013    116.2    357.5   1517.0   397.58      0.0    114.4      1.8     15.0      0.0     95.1       47    115.8    115.6       63     0.000     0.000     0.000     0.000       73        0        0        0        0       53       27     4.714       53     49.1    2.313     1.10       13        1     2014  Essexvalley_TomatoGDDCRO_SandyLoam_S2_rainfed.PRM
  Tot(25)       31       10     2014    178.0    346.7   1524.9   399.74      0.0    176.6      1.4      0.0      0.0     93.1       55    184.0    183.1       88     0.000     0.000     0.000     0.000       74        0        0        0        0        5        8     7.942       88     56.1    4.454     1.61       14        1     2015  Essexvalley_TomatoGDDCRO_SandyLoam_S2_rainfed.PRM
  Tot(26)       31       10     2015    169.6    336.4   1521.2   402.52      0.0    168.7      0.9     13.4      0.0    129.7       77    136.6    137.4       70     0.000     0.000     0.000     0.000       73        0        0        0        0       40       22     6.025       67     50.0    3.014     1.13       13        1     2016  Essexvalley_TomatoGDDCRO_SandyLoam_S2_rainfed.PRM
  Tot(27)       31       10     2016    154.4    346.6   1528.1   405.21      0.0    153.1      1.3     20.2      0.0    108.2       65    137.7    137.8       67     0.000     0.000     0.000     0.000       74        0        0        0        0       33       23     6.071       66     51.1    3.102     1.26       14        1     2017  Essexvalley_TomatoGDDCRO_SandyLoam_S2_rainfed.PRM
  Tot(28)       31       10     2017    365.7    304.8   1537.0   407.21      0.0    355.2     10.5     56.3      0.0    116.6       83    188.5    186.0       99     0.000     0.000     0.000     0.000       75        0        0        0        0        1        1     9.306      100     57.7    5.367     1.76       15        1     2018  Essexvalley_TomatoGDDCRO_SandyLoam_S2_rainfed.PRM
  Tot(29)       31       10     2018     40.5    356.1   1527.7   409.21      0.0     40.5      0.0      0.0      0.0     53.5       24     98.3    100.9       60     0.000     0.000     0.000     0.000       74        0        0        0        0       56       30     4.161       45     50.1    2.084     1.37       14        1     2019  Essexvalley_TomatoGDDCRO_SandyLoam_S2_rainfed.PRM
