AquaCrop 6.0 (March 2017) - Output created on (date) : 3/5/2021   at (time) : 4:14:05 PM

    RunNr     Day1   Month1    Year1     Rain      ETo       GD     CO2      Irri   Infilt   Runoff    Drain   Upflow        E     E/Ex       Tr      TrW   Tr/Trx    SaltIn   SaltOut    SaltUp  SaltProf     Cycle   SaltStr  FertStr  WeedStr  TempStr   ExpStr   StoStr  BioMass  Brelative   HI     Yield     WPet     DayN   MonthN    YearN
                                           mm       mm    °C.day    ppm        mm       mm       mm       mm       mm       mm        %       mm       mm        %    ton/ha    ton/ha    ton/ha    ton/ha      days       %        %        %        %        %        %    ton/ha        %       %    ton/ha    kg/m3
   Tot(1)       31       10     1990    261.6    346.2   1544.5   355.00    176.6    258.4      3.2     74.7      0.0    148.2       96    224.1    220.0      100     0.000     0.000     0.000     0.000       76        0        0        0        0        0        0     8.512      100     59.5    5.067     1.36       16        1     1991  Essexvalley_TomatoGDDCRO_SandyLoam_S2_riegoIRR.PRM
   Tot(2)       31       10     1991    115.1    365.0   1534.8   356.03    289.2    110.6      4.5     38.2      0.0    145.9       85    227.3    226.9      100     0.000     0.000     0.000     0.000       76        0        0        0        0        0        0     8.550      100     57.9    4.951     1.33       16        1     1992  Essexvalley_TomatoGDDCRO_SandyLoam_S2_riegoIRR.PRM
   Tot(3)       31       10     1992     47.0    385.9   1523.3   356.27    328.3     47.0      0.0      0.0      0.0    146.2       81    240.9    241.1      100     0.000     0.000     0.000     0.000       74        0        0        0        0        0        0     8.280      100     57.7    4.775     1.23       14        1     1993  Essexvalley_TomatoGDDCRO_SandyLoam_S2_riegoIRR.PRM
   Tot(4)       31       10     1993    134.9    364.3   1529.0   357.47    252.0    132.4      2.5     23.7      0.0    145.7       82    221.2    221.9      100     0.000     0.000     0.000     0.000       75        0        0        0        0        0        0     8.451      100     57.8    4.884     1.33       15        1     1994  Essexvalley_TomatoGDDCRO_SandyLoam_S2_riegoIRR.PRM
   Tot(5)       31       10     1994    162.4    366.6   1528.6   359.82    273.7    154.5      7.9     53.8      0.0    151.4       92    236.1    236.8      100     0.000     0.000     0.000     0.000       75        0        0        0        0        0        0     8.469      100     57.8    4.894     1.26       15        1     1995  Essexvalley_TomatoGDDCRO_SandyLoam_S2_riegoIRR.PRM
   Tot(6)       31       10     1995     91.3    371.1   1539.8   361.72    274.0     91.3      0.0      0.0      0.0    146.5       84    230.4    228.6      100     0.000     0.000     0.000     0.000       75        0        0        0        0        0        0     8.529      100     57.8    4.929     1.31       15        1     1996  Essexvalley_TomatoGDDCRO_SandyLoam_S2_riegoIRR.PRM
   Tot(7)       31       10     1996    177.9    374.4   1546.1   363.17    288.9    169.3      8.6     79.1      0.0    147.6       89    243.8    244.7      100     0.000     0.000     0.000     0.000       77        0        0        0        0        0        0     8.848      100     59.6    5.274     1.35       17        1     1997  Essexvalley_TomatoGDDCRO_SandyLoam_S2_riegoIRR.PRM
   Tot(8)       31       10     1997    119.4    362.2   1525.4   365.22    245.7    119.1      0.3      0.0      0.0    149.5       88    226.9    226.5      100     0.000     0.000     0.000     0.000       74        0        0        0        0        0        0     8.487      100     56.1    4.757     1.26       14        1     1998  Essexvalley_TomatoGDDCRO_SandyLoam_S2_riegoIRR.PRM
   Tot(9)       31       10     1998    233.9    352.2   1537.6   367.54    194.7    219.9     14.0     56.4      0.0    150.3       91    220.1    220.1      100     0.000     0.000     0.000     0.000       75        0        0        0        0        0        0     8.683      100     57.8    5.018     1.35       15        1     1999  Essexvalley_TomatoGDDCRO_SandyLoam_S2_riegoIRR.PRM
  Tot(10)       31       10     1999    206.5    374.1   1556.8   368.97    268.9    198.5      8.0     91.1      0.0    148.5       91    242.0    246.0      100     0.000     0.000     0.000     0.000       79        0        0        0        0        0        0     9.232      100     61.0    5.631     1.45       20        1     2000  Essexvalley_TomatoGDDCRO_SandyLoam_S2_riegoIRR.PRM
  Tot(11)       31       10     2000    371.0    349.0   1537.4   370.35    168.9    342.7     28.3    174.5      0.0    144.2       82    205.3    201.5      100     0.000     0.000     0.000     0.000       77        0        0        0        0        0       -0     8.993      100     57.9    5.207     1.49       17        1     2001  Essexvalley_TomatoGDDCRO_SandyLoam_S2_riegoIRR.PRM
  Tot(12)       31       10     2001    337.2    341.5   1556.4   372.21    144.1    321.4     15.8    121.1      0.0    146.6       92    212.1    215.8      100     0.000     0.000     0.000     0.000       76        0        0        0        0        0        0     8.848      100     59.5    5.267     1.48       17        1     2002  Essexvalley_TomatoGDDCRO_SandyLoam_S2_riegoIRR.PRM
  Tot(13)       31       10     2002    122.2    357.9   1532.2   374.54    232.7    121.1      1.1      0.2      0.0    144.2       85    221.4    217.2      100     0.000     0.000     0.000     0.000       74        0        0        0        0        0        0     8.667      100     57.7    4.998     1.37       14        1     2003  Essexvalley_TomatoGDDCRO_SandyLoam_S2_riegoIRR.PRM
  Tot(14)       31       10     2003    238.7    373.6   1535.2   376.66    191.2    232.0      6.7     46.6      0.0    156.2       89    232.8    233.2      100     0.000     0.000     0.000     0.000       75        0        0        0        0        0        0     8.881      100     57.8    5.132     1.32       15        1     2004  Essexvalley_TomatoGDDCRO_SandyLoam_S2_riegoIRR.PRM
  Tot(15)       31       10     2004    121.9    396.2   1527.0   378.66    267.2    120.9      1.0      0.0      0.0    163.2       84    237.4    237.6      100     0.000     0.000     0.000     0.000       75        0        0        0        0        0        0     8.884      100     57.8    5.134     1.28       15        1     2005  Essexvalley_TomatoGDDCRO_SandyLoam_S2_riegoIRR.PRM
  Tot(16)       31       10     2005    245.8    347.6   1541.8   380.85    169.7    237.2      8.6     58.0      0.0    148.2       89    212.7    212.1      100     0.000     0.000     0.000     0.000       76        0        0        0        0        0        0     9.105      100     59.5    5.420     1.50       16        1     2006  Essexvalley_TomatoGDDCRO_SandyLoam_S2_riegoIRR.PRM
  Tot(17)       31       10     2006    179.3    361.0   1518.4   382.85    248.4    170.0      9.3     55.2      0.0    147.0       89    228.0    227.6      100     0.000     0.000     0.000     0.000       73        0        0        0        0        0        0     8.660      100     55.9    4.840     1.29       13        1     2007  Essexvalley_TomatoGDDCRO_SandyLoam_S2_riegoIRR.PRM
  Tot(18)       31       10     2007    266.1    355.2   1558.8   384.70    230.0    246.7     19.4    118.2      0.0    147.8       93    225.3    229.7      100     0.000     0.000     0.000     0.000       76        0        0        0        0        0        0     9.144      100     61.0    5.578     1.51       17        1     2008  Essexvalley_TomatoGDDCRO_SandyLoam_S2_riegoIRR.PRM
  Tot(19)       31       10     2008    209.2    356.8   1556.0   386.51    256.2    199.5      9.7     92.1      0.0    144.7       91    226.8    226.8      100     0.000     0.000     0.000     0.000       76        0        0        0        0        0        0     9.164      100     59.5    5.455     1.48       17        1     2009  Essexvalley_TomatoGDDCRO_SandyLoam_S2_riegoIRR.PRM
  Tot(20)       31       10     2009    153.9    354.9   1530.1   388.66    256.1    146.6      7.3     46.2      0.0    150.5       89    217.9    213.9      100     0.000     0.000     0.000     0.000       75        0        0        0        0        0        0     9.083      100     57.8    5.249     1.42       15        1     2010  Essexvalley_TomatoGDDCRO_SandyLoam_S2_riegoIRR.PRM
  Tot(21)       31       10     2010    136.5    361.3   1550.6   390.77    245.9    133.9      2.6     24.6      0.0    147.1       87    222.9    226.9      100     0.000     0.000     0.000     0.000       79        0        0        0        0        0        0     9.695      100     59.7    5.793     1.58       20        1     2011  Essexvalley_TomatoGDDCRO_SandyLoam_S2_riegoIRR.PRM
  Tot(22)       31       10     2011     64.1    375.7   1533.7   392.75    308.4     64.1      0.0      1.6      0.0    150.4       85    232.4    228.2      100     0.000     0.000     0.000     0.000       75        0        0        0        0        0        0     9.167      100     57.8    5.298     1.38       15        1     2012  Essexvalley_TomatoGDDCRO_SandyLoam_S2_riegoIRR.PRM
  Tot(23)       31       10     2012     99.3    365.5   1533.0   395.19    275.2     98.4      0.9      8.9      0.0    148.5       88    228.2    228.1      100     0.000     0.000     0.000     0.000       75        0        0        0        0        0        0     9.150      100     59.4    5.439     1.44       15        1     2013  Essexvalley_TomatoGDDCRO_SandyLoam_S2_riegoIRR.PRM
  Tot(24)       31       10     2013    116.2    357.5   1517.0   397.58    260.2    113.8      2.4     14.9      0.0    147.2       89    223.8    223.8      100     0.000     0.000     0.000     0.000       73        0        0        0        0        0        0     8.947      100     55.9    5.000     1.35       13        1     2014  Essexvalley_TomatoGDDCRO_SandyLoam_S2_riegoIRR.PRM
  Tot(25)       31       10     2014    178.0    346.7   1524.9   399.74    208.0    174.7      3.3     37.1      0.0    144.7       88    213.3    213.9      100     0.000     0.000     0.000     0.000       74        0        0        0        0        0        0     9.134      100     57.7    5.267     1.47       14        1     2015  Essexvalley_TomatoGDDCRO_SandyLoam_S2_riegoIRR.PRM
  Tot(26)       31       10     2015    169.6    336.4   1521.2   402.52    190.7    168.4      1.2     16.0      0.0    148.7       93    206.9    207.0      100     0.000     0.000     0.000     0.000       73        0        0        0        0        0        0     9.046      100     55.9    5.055     1.42       13        1     2016  Essexvalley_TomatoGDDCRO_SandyLoam_S2_riegoIRR.PRM
  Tot(27)       31       10     2016    154.4    346.6   1528.1   405.21    227.0    151.7      2.7     31.7      0.0    141.8       89    216.7    215.7      100     0.000     0.000     0.000     0.000       74        0        0        0        0        0        0     9.220      100     57.7    5.317     1.48       14        1     2017  Essexvalley_TomatoGDDCRO_SandyLoam_S2_riegoIRR.PRM
  Tot(28)       31       10     2017    365.7    304.8   1537.0   407.21    118.0    350.5     15.2    137.9      0.0    130.3       93    190.8    192.4      100     0.000     0.000     0.000     0.000       75        0        0        0        0        0        0     9.419      100     57.8    5.443     1.70       15        1     2018  Essexvalley_TomatoGDDCRO_SandyLoam_S2_riegoIRR.PRM
  Tot(29)       31       10     2018     40.5    356.1   1527.7   409.21    304.2     40.5      0.0      0.0      0.0    136.2       82    220.8    220.2      100     0.000     0.000     0.000     0.000       74        0        0        0        0        0        0     9.298      100     57.7    5.361     1.50       14        1     2019  Essexvalley_TomatoGDDCRO_SandyLoam_S2_riegoIRR.PRM
