AquaCrop 6.0 (March 2017) - Output created on (date) : 3/5/2021   at (time) : 4:00:53 PM

    RunNr     Day1   Month1    Year1     Rain      ETo       GD     CO2      Irri   Infilt   Runoff    Drain   Upflow        E     E/Ex       Tr      TrW   Tr/Trx    SaltIn   SaltOut    SaltUp  SaltProf     Cycle   SaltStr  FertStr  WeedStr  TempStr   ExpStr   StoStr  BioMass  Brelative   HI     Yield     WPet     DayN   MonthN    YearN
                                           mm       mm    °C.day    ppm        mm       mm       mm       mm       mm       mm        %       mm       mm        %    ton/ha    ton/ha    ton/ha    ton/ha      days       %        %        %        %        %        %    ton/ha        %       %    ton/ha    kg/m3
   Tot(1)        1        5     1990    210.7    602.1   1297.2   354.39    373.6    192.1     18.6      0.0      0.0    145.7       75    452.8    452.8      100     0.000     0.000     0.000     0.000       92        0        0        0        0        0        0    14.467      100     53.7    7.764     1.30        7        8     1990  Essexvalley_SweetPotatoGDDCRO_ClayLoam_S1_riegoIRR.PRM
   Tot(2)        1        5     1991    176.2    582.1   1293.5   355.61    417.6    159.2     17.0     11.7      0.0    136.7       81    460.5    454.0      100     0.000     0.000     0.000     0.000       95        0        0        0        0        0        0    14.992      100     53.6    8.043     1.35        8        8     1991  Essexvalley_SweetPotatoGDDCRO_ClayLoam_S1_riegoIRR.PRM
   Tot(3)        1        5     1992    177.2    598.3   1302.1   356.45    399.3    166.4     10.8      0.0      0.0    143.6       77    455.4    461.9      100     0.000     0.000     0.000     0.000       93        0        0        0        0        0        0    14.656      100     53.6    7.863     1.32        8        8     1992  Essexvalley_SweetPotatoGDDCRO_ClayLoam_S1_riegoIRR.PRM
   Tot(4)        1        5     1993    326.2    574.6   1300.5   356.10    300.4    295.1     31.1     20.5      0.0    159.6       96    450.7    450.7      100     0.000     0.000     0.000     0.000       95        0        0        0        0        0        0    14.837      100     53.8    7.982     1.31       10        8     1993  Essexvalley_SweetPotatoGDDCRO_ClayLoam_S1_riegoIRR.PRM
   Tot(5)        1        5     1994    132.3    646.9   1302.6   358.83    494.8    128.4      3.9      0.0      0.0    151.2       81    507.9    507.9      100     0.000     0.000     0.000     0.000       92        0        0        0        0        0        0    14.700      100     53.8    7.910     1.21        6        8     1994  Essexvalley_SweetPotatoGDDCRO_ClayLoam_S1_riegoIRR.PRM
   Tot(6)        1        5     1995    219.3    592.7   1302.0   360.82    368.2    212.4      6.9      2.0      0.0    158.3       85    451.5    451.5      100     0.000     0.000     0.000     0.000       90        0        0        0        0        0        0    14.418      100     53.8    7.760     1.28        5        8     1995  Essexvalley_SweetPotatoGDDCRO_ClayLoam_S1_riegoIRR.PRM
   Tot(7)        1        5     1996    214.7    606.4   1295.4   362.61    382.5    201.4     13.3      3.1      0.0    149.6       79    463.8    463.8      100     0.000     0.000     0.000     0.000       92        0        0        0        0        0        0    14.629      100     53.7    7.850     1.29        7        8     1996  Essexvalley_SweetPotatoGDDCRO_ClayLoam_S1_riegoIRR.PRM
   Tot(8)        1        5     1997    231.2    603.3   1304.5   363.73    389.7    189.7     41.5     15.4      0.0    149.8       75    448.8    448.8      100     0.000     0.000     0.000     0.000       94        0        0        0        0        0        0    15.340      100     53.8    8.249     1.38        8        8     1997  Essexvalley_SweetPotatoGDDCRO_ClayLoam_S1_riegoIRR.PRM
   Tot(9)        1        5     1998    227.0    595.1   1307.4   366.70    370.4    203.5     23.5      0.0      0.0    161.9       84    446.8    446.8      100     0.000     0.000     0.000     0.000       88        0        0        0        0        0        0    14.300      100     53.8    7.697     1.27        3        8     1998  Essexvalley_SweetPotatoGDDCRO_ClayLoam_S1_riegoIRR.PRM
  Tot(10)        1        5     1999    347.5    590.4   1297.1   368.38    257.5    312.6     34.9      5.2      0.0    151.8       81    446.4    446.4      100     0.000     0.000     0.000     0.000       93        0        0        0        0        0        0    15.132      100     53.8    8.140     1.37        8        8     1999  Essexvalley_SweetPotatoGDDCRO_ClayLoam_S1_riegoIRR.PRM
  Tot(11)        1        5     2000    238.2    610.5   1296.9   369.55    363.6    221.3     16.9      0.0      0.0    151.9       76    458.7    458.7      100     0.000     0.000     0.000     0.000       93        0        0        0        0        0        0    15.234      100     53.6    8.170     1.34        8        8     2000  Essexvalley_SweetPotatoGDDCRO_ClayLoam_S1_riegoIRR.PRM
  Tot(12)        1        5     2001    249.4    607.1   1306.1   371.14    403.0    220.3     29.1     22.8      0.0    164.5       90    470.0    470.0      100     0.000     0.000     0.000     0.000       93        0        0        0        0        0        0    15.186      100     53.8    8.172     1.29        8        8     2001  Essexvalley_SweetPotatoGDDCRO_ClayLoam_S1_riegoIRR.PRM
  Tot(13)        1        5     2002    418.8    573.9   1306.7   373.28    352.9    307.3    111.5    118.9      0.0    141.8       79    435.4    435.4      100     0.000     0.000     0.000     0.000       96        0        0        0        0        0        0    15.946      100     53.8    8.575     1.49       10        8     2002  Essexvalley_SweetPotatoGDDCRO_ClayLoam_S1_riegoIRR.PRM
  Tot(14)        1        5     2003    325.4    603.4   1304.9   375.80    295.6    280.4     45.0      7.6      0.0    147.7       77    455.5    455.5      100     0.000     0.000     0.000     0.000       93        0        0        0        0        0        0    15.551      100     53.8    8.366     1.39        7        8     2003  Essexvalley_SweetPotatoGDDCRO_ClayLoam_S1_riegoIRR.PRM
  Tot(15)        1        5     2004    158.5    612.1   1301.2   377.52    431.3    154.2      4.3      0.0      0.0    149.2       79    468.6    468.6      100     0.000     0.000     0.000     0.000       92        0        0        0        0        0        0    15.343      100     53.7    8.233     1.34        6        8     2004  Essexvalley_SweetPotatoGDDCRO_ClayLoam_S1_riegoIRR.PRM
  Tot(16)        1        5     2005    680.1    528.8   1300.6   379.80    115.7    480.7    199.4     85.4      0.0    149.1       88    397.2    397.2      100     0.000     0.000     0.000     0.000       92        0        0        0        0        0        0    15.439      100     53.8    8.308     1.53        6        8     2005  Essexvalley_SweetPotatoGDDCRO_ClayLoam_S1_riegoIRR.PRM
  Tot(17)        1        5     2006    327.1    580.7   1300.1   381.90    300.4    278.0     49.1     34.1      0.0    143.4       74    429.6    429.6      100     0.000     0.000     0.000     0.000       91        0        0        0        0        0        0    15.396      100     53.8    8.284     1.45        6        8     2006  Essexvalley_SweetPotatoGDDCRO_ClayLoam_S1_riegoIRR.PRM
  Tot(18)        1        5     2007    343.9    565.8   1303.7   383.79    310.7    293.5     50.4     36.5      0.0    149.3       94    447.5    447.5      100     0.000     0.000     0.000     0.000       92        0        0        0        0        0        0    15.605      100     53.8    8.398     1.41        6        8     2007  Essexvalley_SweetPotatoGDDCRO_ClayLoam_S1_riegoIRR.PRM
  Tot(19)        1        5     2008    267.1    582.5   1301.2   385.60    326.5    222.9     44.2      0.0      0.0    143.7       78    439.5    439.5      100     0.000     0.000     0.000     0.000       93        0        0        0        0        0        0    15.860      100     53.8    8.534     1.47        7        8     2008  Essexvalley_SweetPotatoGDDCRO_ClayLoam_S1_riegoIRR.PRM
  Tot(20)        1        5     2009    307.5    572.6   1301.3   387.43    290.1    275.2     32.3     17.0      0.0    152.4       84    430.7    430.7      100     0.000     0.000     0.000     0.000       94        0        0        0        0        0        0    15.913      100     53.8    8.560     1.48        9        8     2009  Essexvalley_SweetPotatoGDDCRO_ClayLoam_S1_riegoIRR.PRM
  Tot(21)        1        5     2010    559.2    527.0   1305.6   389.90    138.2    443.3    115.9     54.1      0.0    150.0       87    392.6    392.6      100     0.000     0.000     0.000     0.000       91        0        0        0        0        0        0    15.735      100     53.8    8.467     1.57        5        8     2010  Essexvalley_SweetPotatoGDDCRO_ClayLoam_S1_riegoIRR.PRM
  Tot(22)        1        5     2011    477.6    552.7   1304.3   391.65    190.4    389.4     88.2     60.9      0.0    145.9       79    406.8    406.8      100     0.000     0.000     0.000     0.000       94        0        0        0        0        0        0    16.198      100     53.8    8.714     1.58        8        8     2011  Essexvalley_SweetPotatoGDDCRO_ClayLoam_S1_riegoIRR.PRM
  Tot(23)        1        5     2012    329.9    574.9   1298.5   393.85    308.0    276.6     53.3      0.3      0.0    154.0       85    436.4    436.4      100     0.000     0.000     0.000     0.000       91        0        0        0        0        0        0    15.681      100     53.7    8.415     1.43        6        8     2012  Essexvalley_SweetPotatoGDDCRO_ClayLoam_S1_riegoIRR.PRM
  Tot(24)        1        5     2013    250.8    566.6   1301.4   396.52    310.6    235.5     15.3      0.0      0.0    157.4       86    423.7    423.7      100     0.000     0.000     0.000     0.000       92        0        0        0        0        0        0    16.026      100     53.8    8.624     1.49        7        8     2013  Essexvalley_SweetPotatoGDDCRO_ClayLoam_S1_riegoIRR.PRM
  Tot(25)        1        5     2014    220.5    577.1   1301.6   398.65    368.8    198.1     22.4      6.5      0.0    154.9       84    434.2    434.2      100     0.000     0.000     0.000     0.000       92        0        0        0        0        0        0    15.964      100     53.8    8.590     1.46        7        8     2014  Essexvalley_SweetPotatoGDDCRO_ClayLoam_S1_riegoIRR.PRM
  Tot(26)        1        5     2015    194.5    575.8   1303.9   400.83    371.3    175.4     19.1      0.0      0.0    151.3       82    430.4    430.4      100     0.000     0.000     0.000     0.000       93        0        0        0        0        0        0    16.365      100     53.8    8.803     1.52        7        8     2015  Essexvalley_SweetPotatoGDDCRO_ClayLoam_S1_riegoIRR.PRM
  Tot(27)        1        5     2016    298.6    560.6   1303.1   404.21    294.1    267.2     31.4      0.0      0.0    157.4       89    422.6    422.6      100     0.000     0.000     0.000     0.000       90        0        0        0        0        0        0    15.930      100     53.8    8.574     1.49        4        8     2016  Essexvalley_SweetPotatoGDDCRO_ClayLoam_S1_riegoIRR.PRM
  Tot(28)        1        5     2017    450.2    535.5   1307.1   406.21    314.3    274.4    175.8     64.7      0.0    140.2       86    408.6    408.6      100     0.000     0.000     0.000     0.000       92        0        0        0        0        0        0    16.203      100     53.8    8.719     1.60        7        8     2017  Essexvalley_SweetPotatoGDDCRO_ClayLoam_S1_riegoIRR.PRM
  Tot(29)        1        5     2018    269.8    550.9   1302.7   408.21    321.2    240.8     29.0     22.5      0.0    153.9       92    420.0    420.0      100     0.000     0.000     0.000     0.000       94        0        0        0        0        0        0    16.543      100     53.8    8.899     1.56        9        8     2018  Essexvalley_SweetPotatoGDDCRO_ClayLoam_S1_riegoIRR.PRM
