AquaCrop 6.0 (March 2017) - Output created on (date) : 3/5/2021   at (time) : 4:04:25 PM

    RunNr     Day1   Month1    Year1     Rain      ETo       GD     CO2      Irri   Infilt   Runoff    Drain   Upflow        E     E/Ex       Tr      TrW   Tr/Trx    SaltIn   SaltOut    SaltUp  SaltProf     Cycle   SaltStr  FertStr  WeedStr  TempStr   ExpStr   StoStr  BioMass  Brelative   HI     Yield     WPet     DayN   MonthN    YearN
                                           mm       mm    °C.day    ppm        mm       mm       mm       mm       mm       mm        %       mm       mm        %    ton/ha    ton/ha    ton/ha    ton/ha      days       %        %        %        %        %        %    ton/ha        %       %    ton/ha    kg/m3
   Tot(1)        1        5     1990    210.7    602.1   1297.2   354.39    378.7    207.0      3.7     30.3      0.0    117.3       60    452.5    452.5      100     0.000     0.000     0.000     0.000       92        0        0        0        0        0        0    14.458      100     53.7    7.766     1.37        7        8     1990  Essexvalley_SweetPotatoGDDCRO_Sand_S1_riegoIRR.PRM
   Tot(2)        1        5     1991    176.2    582.1   1293.5   355.61    424.1    173.2      3.0     35.2      0.0    115.8       69    460.3    453.8      100     0.000     0.000     0.000     0.000       95        0        0        0        0        0        0    14.982      100     53.6    8.038     1.40        8        8     1991  Essexvalley_SweetPotatoGDDCRO_Sand_S1_riegoIRR.PRM
   Tot(3)        1        5     1992    177.2    598.3   1302.1   356.45    401.9    175.5      1.7     17.8      0.0    118.8       63    455.4    461.9      100     0.000     0.000     0.000     0.000       93        0        0        0        0        0        0    14.656      100     53.6    7.863     1.38        8        8     1992  Essexvalley_SweetPotatoGDDCRO_Sand_S1_riegoIRR.PRM
   Tot(4)        1        5     1993    326.2    574.6   1300.5   356.10    336.0    321.4      4.8     72.3      0.0    150.8       91    450.7    450.7      100     0.000     0.000     0.000     0.000       95        0        0        0        0        0        0    14.837      100     53.8    7.982     1.33       10        8     1993  Essexvalley_SweetPotatoGDDCRO_Sand_S1_riegoIRR.PRM
   Tot(5)        1        5     1994    132.3    646.9   1302.6   358.83    487.2    131.9      0.4      3.6      0.0    124.4       66    507.8    507.8      100     0.000     0.000     0.000     0.000       92        0        0        0        0        0        0    14.698      100     53.8    7.909     1.26        6        8     1994  Essexvalley_SweetPotatoGDDCRO_Sand_S1_riegoIRR.PRM
   Tot(6)        1        5     1995    219.3    592.7   1302.0   360.82    354.7    219.0      0.3      5.5      0.0    128.7       69    451.5    451.5      100     0.000     0.000     0.000     0.000       90        0        0        0        0        0        0    14.418      100     53.8    7.760     1.34        5        8     1995  Essexvalley_SweetPotatoGDDCRO_Sand_S1_riegoIRR.PRM
   Tot(7)        1        5     1996    214.7    606.4   1295.4   362.61    384.5    212.2      2.5     22.3      0.0    124.4       66    463.7    463.7      100     0.000     0.000     0.000     0.000       92        0        0        0        0        0        0    14.626      100     53.7    7.849     1.34        7        8     1996  Essexvalley_SweetPotatoGDDCRO_Sand_S1_riegoIRR.PRM
   Tot(8)        1        5     1997    231.2    603.3   1304.5   363.73    388.9    219.0     12.2     61.6      0.0    113.6       57    448.8    448.8      100     0.000     0.000     0.000     0.000       94        0        0        0        0        0        0    15.340      100     53.8    8.249     1.47        8        8     1997  Essexvalley_SweetPotatoGDDCRO_Sand_S1_riegoIRR.PRM
   Tot(9)        1        5     1998    227.0    595.1   1307.4   366.70    365.5    222.0      5.0     29.1      0.0    127.8       66    446.8    446.8      100     0.000     0.000     0.000     0.000       88        0        0        0        0        0        0    14.300      100     53.8    7.697     1.35        3        8     1998  Essexvalley_SweetPotatoGDDCRO_Sand_S1_riegoIRR.PRM
  Tot(10)        1        5     1999    347.5    590.4   1297.1   368.38    252.3    341.9      5.6     33.0      0.0    129.4       69    446.3    446.3      100     0.000     0.000     0.000     0.000       93        0        0        0        0        0        0    15.129      100     53.8    8.139     1.42        8        8     1999  Essexvalley_SweetPotatoGDDCRO_Sand_S1_riegoIRR.PRM
  Tot(11)        1        5     2000    238.2    610.5   1296.9   369.55    351.4    235.9      2.3     10.8      0.0    122.9       62    458.5    458.5      100     0.000     0.000     0.000     0.000       93        0        0        0        0        0        0    15.227      100     53.7    8.169     1.41        8        8     2000  Essexvalley_SweetPotatoGDDCRO_Sand_S1_riegoIRR.PRM
  Tot(12)        1        5     2001    249.4    607.1   1306.1   371.14    417.2    241.9      7.5     57.5      0.0    147.2       81    470.0    470.0      100     0.000     0.000     0.000     0.000       93        0        0        0        0        0        0    15.186      100     53.8    8.172     1.33        8        8     2001  Essexvalley_SweetPotatoGDDCRO_Sand_S1_riegoIRR.PRM
  Tot(13)        1        5     2002    418.8    573.9   1306.7   373.28    359.8    383.8     35.0    212.8      0.0    112.1       62    435.4    435.4      100     0.000     0.000     0.000     0.000       96        0        0        0        0        0        0    15.946      100     53.8    8.575     1.57       10        8     2002  Essexvalley_SweetPotatoGDDCRO_Sand_S1_riegoIRR.PRM
  Tot(14)        1        5     2003    325.4    603.4   1304.9   375.80    299.9    313.5     11.9     56.2      0.0    118.0       61    455.2    455.2      100     0.000     0.000     0.000     0.000       93        0        0        0        0        0        0    15.541      100     53.8    8.360     1.46        7        8     2003  Essexvalley_SweetPotatoGDDCRO_Sand_S1_riegoIRR.PRM
  Tot(15)        1        5     2004    158.5    612.1   1301.2   377.52    418.5    158.3      0.2      0.7      0.0    122.0       65    468.4    468.4      100     0.000     0.000     0.000     0.000       92        0        0        0        0        0        0    15.334      100     53.7    8.229     1.40        6        8     2004  Essexvalley_SweetPotatoGDDCRO_Sand_S1_riegoIRR.PRM
  Tot(16)        1        5     2005    680.1    528.8   1300.6   379.80    162.7    600.4     79.7    250.2      0.0    132.3       78    397.0    397.0      100     0.000     0.000     0.000     0.000       92        0        0        0        0        0        0    15.432      100     53.8    8.304     1.58        6        8     2005  Essexvalley_SweetPotatoGDDCRO_Sand_S1_riegoIRR.PRM
  Tot(17)        1        5     2006    327.1    580.7   1300.1   381.90    304.3    316.4     10.7     84.8      0.0    112.8       58    429.6    429.6      100     0.000     0.000     0.000     0.000       91        0        0        0        0        0        0    15.396      100     53.8    8.284     1.53        6        8     2006  Essexvalley_SweetPotatoGDDCRO_Sand_S1_riegoIRR.PRM
  Tot(18)        1        5     2007    343.9    565.8   1303.7   383.79    336.5    328.7     15.2     91.4      0.0    136.7       86    447.5    447.5      100     0.000     0.000     0.000     0.000       92        0        0        0        0        0        0    15.605      100     53.8    8.398     1.44        6        8     2007  Essexvalley_SweetPotatoGDDCRO_Sand_S1_riegoIRR.PRM
  Tot(19)        1        5     2008    267.1    582.5   1301.2   385.60    331.7    252.1     15.0     46.1      0.0    113.9       62    439.3    439.3      100     0.000     0.000     0.000     0.000       93        0        0        0        0        0        0    15.851      100     53.8    8.529     1.55        7        8     2008  Essexvalley_SweetPotatoGDDCRO_Sand_S1_riegoIRR.PRM
  Tot(20)        1        5     2009    307.5    572.6   1301.3   387.43    299.0    302.7      4.8     56.5      0.0    130.6       72    430.7    430.7      100     0.000     0.000     0.000     0.000       94        0        0        0        0        0        0    15.913      100     53.8    8.560     1.53        9        8     2009  Essexvalley_SweetPotatoGDDCRO_Sand_S1_riegoIRR.PRM
  Tot(21)        1        5     2010    559.2    527.0   1305.6   389.90    149.9    522.5     36.7    165.0      0.0    126.4       73    392.6    392.6      100     0.000     0.000     0.000     0.000       91        0        0        0        0        0        0    15.733      100     53.8    8.466     1.64        5        8     2010  Essexvalley_SweetPotatoGDDCRO_Sand_S1_riegoIRR.PRM
  Tot(22)        1        5     2011    477.6    552.7   1304.3   391.65    189.0    453.4     24.2    134.4      0.0    116.6       63    406.6    406.6      100     0.000     0.000     0.000     0.000       94        0        0        0        0        0        0    16.190      100     53.8    8.709     1.67        8        8     2011  Essexvalley_SweetPotatoGDDCRO_Sand_S1_riegoIRR.PRM
  Tot(23)        1        5     2012    329.9    574.9   1298.5   393.85    320.0    315.7     14.2     43.5      0.0    130.0       72    436.4    436.4      100     0.000     0.000     0.000     0.000       91        0        0        0        0        0        0    15.681      100     53.7    8.415     1.49        6        8     2012  Essexvalley_SweetPotatoGDDCRO_Sand_S1_riegoIRR.PRM
  Tot(24)        1        5     2013    250.8    566.6   1301.4   396.52    300.5    249.2      1.6      7.7      0.0    134.3       74    423.7    423.7      100     0.000     0.000     0.000     0.000       92        0        0        0        0        0        0    16.026      100     53.8    8.624     1.55        7        8     2013  Essexvalley_SweetPotatoGDDCRO_Sand_S1_riegoIRR.PRM
  Tot(25)        1        5     2014    220.5    577.1   1301.6   398.65    374.3    214.8      5.7     30.4      0.0    134.3       73    434.2    434.2      100     0.000     0.000     0.000     0.000       92        0        0        0        0        0        0    15.964      100     53.8    8.590     1.52        7        8     2014  Essexvalley_SweetPotatoGDDCRO_Sand_S1_riegoIRR.PRM
  Tot(26)        1        5     2015    194.5    575.8   1303.9   400.83    374.8    189.4      5.1     27.8      0.0    122.5       66    430.2    430.2      100     0.000     0.000     0.000     0.000       93        0        0        0        0        0        0    16.356      100     53.8    8.799     1.60        7        8     2015  Essexvalley_SweetPotatoGDDCRO_Sand_S1_riegoIRR.PRM
  Tot(27)        1        5     2016    298.6    560.6   1303.1   404.21    295.3    291.5      7.1     33.7      0.0    134.0       76    422.6    422.6      100     0.000     0.000     0.000     0.000       90        0        0        0        0        0        0    15.930      100     53.8    8.574     1.55        4        8     2016  Essexvalley_SweetPotatoGDDCRO_Sand_S1_riegoIRR.PRM
  Tot(28)        1        5     2017    450.2    535.5   1307.1   406.21    339.2    360.4     89.8    176.4      0.0    118.7       73    408.6    408.6      100     0.000     0.000     0.000     0.000       92        0        0        0        0        0        0    16.203      100     53.8    8.719     1.66        7        8     2017  Essexvalley_SweetPotatoGDDCRO_Sand_S1_riegoIRR.PRM
  Tot(29)        1        5     2018    269.8    550.9   1302.7   408.21    340.8    264.3      5.5     60.9      0.0    140.2       84    420.0    420.0      100     0.000     0.000     0.000     0.000       94        0        0        0        0        0        0    16.543      100     53.8    8.899     1.59        9        8     2018  Essexvalley_SweetPotatoGDDCRO_Sand_S1_riegoIRR.PRM
