AquaCrop 6.0 (March 2017) - Output created on (date) : 3/5/2021   at (time) : 4:09:56 PM

    RunNr     Day1   Month1    Year1     Rain      ETo       GD     CO2      Irri   Infilt   Runoff    Drain   Upflow        E     E/Ex       Tr      TrW   Tr/Trx    SaltIn   SaltOut    SaltUp  SaltProf     Cycle   SaltStr  FertStr  WeedStr  TempStr   ExpStr   StoStr  BioMass  Brelative   HI     Yield     WPet     DayN   MonthN    YearN
                                           mm       mm    °C.day    ppm        mm       mm       mm       mm       mm       mm        %       mm       mm        %    ton/ha    ton/ha    ton/ha    ton/ha      days       %        %        %        %        %        %    ton/ha        %       %    ton/ha    kg/m3
   Tot(1)        1       10     1990    334.7    336.3   1537.2   354.39     75.0    299.7     35.0     36.5      0.0    154.3       92    199.3    195.4      100     0.000     0.000     0.000     0.000       74        0        0        0        0        0       -0     8.279      100     57.7    4.774     1.35       15       12     1990  Essexvalley_TomatoGDDCRO_ClayLoam_S2_riegoIRR.PRM
   Tot(2)        1       10     1991    173.7    368.8   1534.0   355.61    231.1    152.6     21.1      7.8      0.0    165.6       94    226.5    226.6      100     0.000     0.000     0.000     0.000       74        0        0        0        0        0        0     8.242      100     57.7    4.753     1.21       15       12     1991  Essexvalley_TomatoGDDCRO_ClayLoam_S2_riegoIRR.PRM
   Tot(3)        1       10     1992     53.8    375.1   1505.8   356.45    321.8     53.7      0.1      0.0      0.0    162.7       89    228.6    228.1      100     0.000     0.000     0.000     0.000       72        0        0        0        0        0        0     7.999      100     54.1    4.328     1.11       13       12     1992  Essexvalley_TomatoGDDCRO_ClayLoam_S2_riegoIRR.PRM
   Tot(4)        1       10     1993    166.8    369.9   1520.5   356.10    230.0    150.7     16.1      1.2      0.0    165.8       93    226.8    228.0      100     0.000     0.000     0.000     0.000       73        0        0        0        0        0        0     8.146      100     55.9    4.552     1.16       14       12     1993  Essexvalley_TomatoGDDCRO_ClayLoam_S2_riegoIRR.PRM
   Tot(5)        1       10     1994    199.7    368.5   1522.5   358.83    217.7    168.0     31.7     16.2      0.0    162.9       90    222.8    221.9      100     0.000     0.000     0.000     0.000       73        0        0        0        0        0        0     8.188      100     55.9    4.576     1.19       14       12     1994  Essexvalley_TomatoGDDCRO_ClayLoam_S2_riegoIRR.PRM
   Tot(6)        1       10     1995    225.6    358.8   1527.1   360.82    229.1    195.3     30.3     54.5      0.0    158.9       96    227.0    227.0      100     0.000     0.000     0.000     0.000       73        0        0        0        0        0        0     8.234      100     57.5    4.737     1.23       14       12     1995  Essexvalley_TomatoGDDCRO_ClayLoam_S2_riegoIRR.PRM
   Tot(7)        1       10     1996    256.0    361.2   1541.2   362.61    195.0    218.5     37.5     43.0      0.0    159.1       95    226.9    226.4      100     0.000     0.000     0.000     0.000       75        0        0        0        0        0       -0     8.564      100     57.8    4.949     1.28       16       12     1996  Essexvalley_TomatoGDDCRO_ClayLoam_S2_riegoIRR.PRM
   Tot(8)        1       10     1997    230.1    360.2   1527.9   363.73    210.6    196.4     33.7     38.8      0.0    160.6       95    225.0    226.6      100     0.000     0.000     0.000     0.000       73        0        0        0        0        0        0     8.269      100     57.5    4.757     1.23       14       12     1997  Essexvalley_TomatoGDDCRO_ClayLoam_S2_riegoIRR.PRM
   Tot(9)        1       10     1998    375.8    343.2   1529.0   366.70    124.1    293.6     82.2     54.2      0.0    154.6       93    210.0    209.1      100     0.000     0.000     0.000     0.000       73        0        0        0        0        0        0     8.401      100     57.7    4.844     1.33       14       12     1998  Essexvalley_TomatoGDDCRO_ClayLoam_S2_riegoIRR.PRM
  Tot(10)        1       10     1999    487.3    341.3   1540.4   368.38    118.5    366.0    121.3    132.3      0.0    152.4       97    216.0    215.8      100     0.000     0.000     0.000     0.000       76        0        0        0        0        0        0     8.871      100     57.9    5.137     1.39       17       12     1999  Essexvalley_TomatoGDDCRO_ClayLoam_S2_riegoIRR.PRM
  Tot(11)        1       10     2000    339.5    366.8   1532.1   369.55    203.4    252.8     86.7     84.6      0.0    162.1       92    225.5    225.5      100     0.000     0.000     0.000     0.000       74        0        0        0        0        0        0     8.592      100     57.7    4.954     1.28       15       12     2000  Essexvalley_TomatoGDDCRO_ClayLoam_S2_riegoIRR.PRM
  Tot(12)        1       10     2001    377.1    352.9   1533.0   371.14    127.6    309.0     68.1     77.1      0.0    161.3       94    214.3    214.2      100     0.000     0.000     0.000     0.000       74        0        0        0        0        0       -0     8.647      100     57.7    4.986     1.33       15       12     2001  Essexvalley_TomatoGDDCRO_ClayLoam_S2_riegoIRR.PRM
  Tot(13)        1       10     2002    171.3    361.4   1530.1   373.28    244.3    147.8     23.5     25.5      0.0    156.5       93    226.1    226.0      100     0.000     0.000     0.000     0.000       73        0        0        0        0        0        0     8.495      100     57.5    4.887     1.28       14       12     2002  Essexvalley_TomatoGDDCRO_ClayLoam_S2_riegoIRR.PRM
  Tot(14)        1       10     2003    274.6    357.2   1516.6   375.80    144.4    241.5     33.1      1.2      0.0    161.0       95    221.4    221.7      100     0.000     0.000     0.000     0.000       72        0        0        0        0        0        0     8.439      100     57.5    4.855     1.27       13       12     2003  Essexvalley_TomatoGDDCRO_ClayLoam_S2_riegoIRR.PRM
  Tot(15)        1       10     2004     81.4    405.7   1506.5   377.52    329.7     79.4      2.0      0.7      0.0    169.3       90    254.9    254.5      100     0.000     0.000     0.000     0.000       72        0        0        0        0        0        0     8.477      100     55.9    4.737     1.12       13       12     2004  Essexvalley_TomatoGDDCRO_ClayLoam_S2_riegoIRR.PRM
  Tot(16)        1       10     2005    640.4    322.9   1539.0   379.80     92.3    444.8    195.6    203.5      0.0    137.8       99    213.4    215.0      100     0.000     0.000     0.000     0.000       74        0        0        0        0        0        0     8.773      100     57.7    5.059     1.44       15       12     2005  Essexvalley_TomatoGDDCRO_ClayLoam_S2_riegoIRR.PRM
  Tot(17)        1       10     2006    248.4    353.6   1500.6   381.90    165.5    208.0     40.4     17.2      0.0    161.7       92    210.2    208.5      100     0.000     0.000     0.000     0.000       71        0        0        0        0        0        0     8.416      100     55.7    4.688     1.26       12       12     2006  Essexvalley_TomatoGDDCRO_ClayLoam_S2_riegoIRR.PRM
  Tot(18)        1       10     2007    563.3    328.2   1553.2   383.79     86.7    427.5    135.8    173.0      0.0    141.9       98    211.5    215.9      100     0.000     0.000     0.000     0.000       74        0        0        0        0        0        0     8.819      100     59.0    5.203     1.48       16       12     2007  Essexvalley_TomatoGDDCRO_ClayLoam_S2_riegoIRR.PRM
  Tot(19)        1       10     2008    311.4    339.7   1535.6   385.60    139.0    260.1     51.3     51.9      0.0    153.8       96    209.8    206.1      100     0.000     0.000     0.000     0.000       74        0        0        0        0        0        0     8.918      100     59.4    5.301     1.46       15       12     2008  Essexvalley_TomatoGDDCRO_ClayLoam_S2_riegoIRR.PRM
  Tot(20)        1       10     2009    159.0    360.3   1496.5   387.43    219.5    148.2     10.8      0.0      0.0    163.9       94    219.7    219.0      100     0.000     0.000     0.000     0.000       71        0        0        0        0        0        0     8.500      100     55.7    4.735     1.23       12       12     2009  Essexvalley_TomatoGDDCRO_ClayLoam_S2_riegoIRR.PRM
  Tot(21)        1       10     2010    304.8    345.7   1541.0   389.90    149.8    255.1     49.7     43.3      0.0    147.9       95    220.2    222.2      100     0.000     0.000     0.000     0.000       76        0        0        0        0        0        0     9.320      100     57.9    5.396     1.47       17       12     2010  Essexvalley_TomatoGDDCRO_ClayLoam_S2_riegoIRR.PRM
  Tot(22)        1       10     2011    230.5    362.9   1529.8   391.65    182.3    211.0     19.5     17.7      0.0    162.1       98    229.9    228.3      100     0.000     0.000     0.000     0.000       73        0        0        0        0        0        0     8.872      100     57.7    5.116     1.31       14       12     2011  Essexvalley_TomatoGDDCRO_ClayLoam_S2_riegoIRR.PRM
  Tot(23)        1       10     2012    251.6    354.6   1537.1   393.85    187.6    198.0     53.6     26.4      0.0    156.7       94    218.6    218.6      100     0.000     0.000     0.000     0.000       74        0        0        0        0        0        0     9.060      100     57.7    5.224     1.39       15       12     2012  Essexvalley_TomatoGDDCRO_ClayLoam_S2_riegoIRR.PRM
  Tot(24)        1       10     2013    162.3    344.8   1498.8   396.52    199.0    151.4     10.9      0.9      0.0    154.5       94    211.0    210.7      100     0.000     0.000     0.000     0.000       71        0        0        0        0        0        0     8.635      100     55.7    4.810     1.32       12       12     2013  Essexvalley_TomatoGDDCRO_ClayLoam_S2_riegoIRR.PRM
  Tot(25)        1       10     2014    212.2    353.3   1511.8   398.65    166.2    194.4     17.8      0.0      0.0    158.6       91    211.1    212.2      100     0.000     0.000     0.000     0.000       72        0        0        0        0        0        0     8.827      100     55.9    4.933     1.33       13       12     2014  Essexvalley_TomatoGDDCRO_ClayLoam_S2_riegoIRR.PRM
  Tot(26)        1       10     2015    225.6    338.4   1507.2   400.83    131.7    212.2     13.4      0.0      0.0    156.3       95    204.0    203.3      100     0.000     0.000     0.000     0.000       71        0        0        0        0        0        0     8.738      100     55.7    4.868     1.35       12       12     2015  Essexvalley_TomatoGDDCRO_ClayLoam_S2_riegoIRR.PRM
  Tot(27)        1       10     2016    301.9    326.5   1516.9   404.21     84.1    266.5     35.4     18.8      0.0    148.9       96    199.3    199.2      100     0.000     0.000     0.000     0.000       72        0        0        0        0        0        0     8.940      100     57.5    5.143     1.48       13       12     2016  Essexvalley_TomatoGDDCRO_ClayLoam_S2_riegoIRR.PRM
  Tot(28)        1       10     2017    468.2    308.9   1534.9   406.21     38.3    385.0     83.2     84.3      0.0    147.9       97    183.7    184.7      100     0.000     0.000     0.000     0.000       73        0        0        0        0        0        0     9.145      100     57.7    5.273     1.59       14       12     2017  Essexvalley_TomatoGDDCRO_ClayLoam_S2_riegoIRR.PRM
  Tot(29)        1       10     2018    163.0    346.4   1525.4   408.21    258.1    133.7     29.3     38.9      0.0    152.5       96    216.7    215.8      100     0.000     0.000     0.000     0.000       73        0        0        0        0        0        0     9.093      100     57.5    5.231     1.42       14       12     2018  Essexvalley_TomatoGDDCRO_ClayLoam_S2_riegoIRR.PRM
