AquaCrop 6.0 (March 2017) - Output created on (date) : 3/5/2021   at (time) : 4:09:35 PM

    RunNr     Day1   Month1    Year1     Rain      ETo       GD     CO2      Irri   Infilt   Runoff    Drain   Upflow        E     E/Ex       Tr      TrW   Tr/Trx    SaltIn   SaltOut    SaltUp  SaltProf     Cycle   SaltStr  FertStr  WeedStr  TempStr   ExpStr   StoStr  BioMass  Brelative   HI     Yield     WPet     DayN   MonthN    YearN
                                           mm       mm    °C.day    ppm        mm       mm       mm       mm       mm       mm        %       mm       mm        %    ton/ha    ton/ha    ton/ha    ton/ha      days       %        %        %        %        %        %    ton/ha        %       %    ton/ha    kg/m3
   Tot(1)        1       10     1990    334.7    336.3   1537.2   354.39      0.0    315.2     19.5     24.0      0.0    114.0       66    193.7    189.7      100     0.000     0.000     0.000     0.000       74        0        0        0        0        3        0     8.046       98     57.7    4.640     1.51       15       12     1990  Essexvalley_TomatoGDDCRO_ClayLoam_S2_rainfed.PRM
   Tot(2)        1       10     1991    173.7    368.8   1534.0   355.61      0.0    164.6      9.1      0.0      0.0    119.5       64    180.3    183.0       83     0.000     0.000     0.000     0.000       74        0        0        0        0       33       12     6.543       80     55.4    3.622     1.21       15       12     1991  Essexvalley_TomatoGDDCRO_ClayLoam_S2_rainfed.PRM
   Tot(3)        1       10     1992     53.8    375.1   1505.8   356.45      0.0     53.8      0.0      0.0      0.0     83.4       36    114.9    115.6       64     0.000     0.000     0.000     0.000       72        0        0        0        0       54       26     3.988       50     48.2    1.920     0.97       13       12     1992  Essexvalley_TomatoGDDCRO_ClayLoam_S2_rainfed.PRM
   Tot(4)        1       10     1993    166.8    369.9   1520.5   356.10      0.0    161.2      5.6      1.7      0.0    121.6       61    163.1    161.7       79     0.000     0.000     0.000     0.000       73        0        0        0        0       38       14     5.911       73     53.3    3.152     1.11       14       12     1993  Essexvalley_TomatoGDDCRO_ClayLoam_S2_rainfed.PRM
   Tot(5)        1       10     1994    199.7    368.5   1522.5   358.83      0.0    184.4     15.3      0.0      0.0    115.5       62    194.4    194.5       90     0.000     0.000     0.000     0.000       73        0        0        0        0        8        7     7.189       89     54.8    3.939     1.27       14       12     1994  Essexvalley_TomatoGDDCRO_ClayLoam_S2_rainfed.PRM
   Tot(6)        1       10     1995    225.6    358.8   1527.1   360.82      0.0    196.4     29.2     55.6      0.0    129.7       70    150.1    151.0       72     0.000     0.000     0.000     0.000       73        0        0        0        0       46       20     5.437       67     53.3    2.898     1.04       14       12     1995  Essexvalley_TomatoGDDCRO_ClayLoam_S2_rainfed.PRM
   Tot(7)        1       10     1996    256.0    361.2   1541.2   362.61      0.0    229.6     26.4      0.0      0.0    133.7       78    211.4    209.8       95     0.000     0.000     0.000     0.000       75        0        0        0        0       12        3     8.010       94     57.3    4.587     1.33       16       12     1996  Essexvalley_TomatoGDDCRO_ClayLoam_S2_rainfed.PRM
   Tot(8)        1       10     1997    230.1    360.2   1527.9   363.73      0.0    199.4     30.7     40.0      0.0    132.1       74    166.1    167.9       78     0.000     0.000     0.000     0.000       73        0        0        0        0       42       16     6.091       74     54.2    3.301     1.11       14       12     1997  Essexvalley_TomatoGDDCRO_ClayLoam_S2_rainfed.PRM
   Tot(9)        1       10     1998    375.8    343.2   1529.0   366.70      0.0    323.4     52.4     53.3      0.0    131.1       78    205.0    202.1       99     0.000     0.000     0.000     0.000       73        0        0        0        0        2        0     8.183       98     57.6    4.712     1.40       14       12     1998  Essexvalley_TomatoGDDCRO_ClayLoam_S2_rainfed.PRM
  Tot(10)        1       10     1999    487.3    341.3   1540.4   368.38      0.0    382.7    104.6    139.9      0.0    144.8       92    209.3    210.5       97     0.000     0.000     0.000     0.000       76        0        0        0        0        0        2     8.610       98     57.6    4.959     1.40       17       12     1999  Essexvalley_TomatoGDDCRO_ClayLoam_S2_rainfed.PRM
  Tot(11)        1       10     2000    339.5    366.8   1532.1   369.55      0.0    264.9     74.6      6.0      0.0    112.5       59    190.4    189.2       90     0.000     0.000     0.000     0.000       74        0        0        0        0       30        7     7.321       86     56.5    4.137     1.37       15       12     2000  Essexvalley_TomatoGDDCRO_ClayLoam_S2_rainfed.PRM
  Tot(12)        1       10     2001    377.1    352.9   1533.0   371.14      0.0    319.5     57.6     75.7      0.0    140.7       82    209.1    210.0       98     0.000     0.000     0.000     0.000       74        0        0        0        0        1        1     8.443       98     57.5    4.853     1.39       15       12     2001  Essexvalley_TomatoGDDCRO_ClayLoam_S2_rainfed.PRM
  Tot(13)        1       10     2002    171.3    361.4   1530.1   373.28      0.0    156.1     15.2     18.3      0.0    122.5       67    155.5    157.4       74     0.000     0.000     0.000     0.000       73        0        0        0        0       43       19     5.860       70     53.6    3.143     1.13       14       12     2002  Essexvalley_TomatoGDDCRO_ClayLoam_S2_rainfed.PRM
  Tot(14)        1       10     2003    274.6    357.2   1516.6   375.80      0.0    266.6      8.0      1.9      0.0    136.7       79    210.6    207.8       96     0.000     0.000     0.000     0.000       72        0        0        0        0        8        2     8.028       96     57.2    4.589     1.32       13       12     2003  Essexvalley_TomatoGDDCRO_ClayLoam_S2_rainfed.PRM
  Tot(15)        1       10     2004     81.4    405.7   1506.5   377.52      0.0     80.3      1.1      1.1      0.0     98.9       42    128.3    131.8       63     0.000     0.000     0.000     0.000       72        0        0        0        0       53       28     4.250       51     48.8    2.075     0.91       13       12     2004  Essexvalley_TomatoGDDCRO_ClayLoam_S2_rainfed.PRM
  Tot(16)        1       10     2005    640.4    322.9   1539.0   379.80      0.0    461.6    178.8    205.5      0.0    132.8       96    213.1    210.7      100     0.000     0.000     0.000     0.000       74        0        0        0        0        0        1     8.751      100     57.6    5.045     1.46       15       12     2005  Essexvalley_TomatoGDDCRO_ClayLoam_S2_rainfed.PRM
  Tot(17)        1       10     2006    248.4    353.6   1500.6   381.90      0.0    234.7     13.7      0.0      0.0    113.8       62    204.1    202.4      100     0.000     0.000     0.000     0.000       71        0        0        0        0        7        0     8.173       98     55.7    4.552     1.43       12       12     2006  Essexvalley_TomatoGDDCRO_ClayLoam_S2_rainfed.PRM
  Tot(18)        1       10     2007    563.3    328.2   1553.2   383.79      0.0    434.3    129.0    177.5      0.0    133.3       92    209.5    214.0       99     0.000     0.000     0.000     0.000       74        0        0        0        0        0        2     8.741      100     58.9    5.150     1.51       16       12     2007  Essexvalley_TomatoGDDCRO_ClayLoam_S2_rainfed.PRM
  Tot(19)        1       10     2008    311.4    339.7   1535.6   385.60      0.0    275.1     36.3     42.2      0.0    137.6       86    204.5    201.9       98     0.000     0.000     0.000     0.000       74        0        0        0        0        0        2     8.699       98     59.2    5.149     1.51       15       12     2008  Essexvalley_TomatoGDDCRO_ClayLoam_S2_rainfed.PRM
  Tot(20)        1       10     2009    159.0    360.3   1496.5   387.43      0.0    158.7      0.3      0.0      0.0    127.0       71    171.3    172.7       80     0.000     0.000     0.000     0.000       71        0        0        0        0       29       14     6.650       79     52.7    3.506     1.18       12       12     2009  Essexvalley_TomatoGDDCRO_ClayLoam_S2_rainfed.PRM
  Tot(21)        1       10     2010    304.8    345.7   1541.0   389.90      0.0    277.3     27.5     46.8      0.0    136.0       87    201.2    200.1       91     0.000     0.000     0.000     0.000       76        0        0        0        0        1        6     8.498       92     56.9    4.836     1.43       17       12     2010  Essexvalley_TomatoGDDCRO_ClayLoam_S2_rainfed.PRM
  Tot(22)        1       10     2011    230.5    362.9   1529.8   391.65      0.0    216.1     14.4     17.3      0.0    149.3       90    184.9    185.9       81     0.000     0.000     0.000     0.000       73        0        0        0        0        3       14     7.121       81     54.8    3.903     1.17       14       12     2011  Essexvalley_TomatoGDDCRO_ClayLoam_S2_rainfed.PRM
  Tot(23)        1       10     2012    251.6    354.6   1537.1   393.85      0.0    217.5     34.1     24.7      0.0    124.2       73    195.8    195.3       90     0.000     0.000     0.000     0.000       74        0        0        0        0        4        7     8.081       90     56.4    4.561     1.43       15       12     2012  Essexvalley_TomatoGDDCRO_ClayLoam_S2_rainfed.PRM
  Tot(24)        1       10     2013    162.3    344.8   1498.8   396.52      0.0    160.9      1.4      1.4      0.0    119.4       69    168.7    168.2       83     0.000     0.000     0.000     0.000       71        0        0        0        0       31       12     6.916       81     53.3    3.686     1.28       12       12     2013  Essexvalley_TomatoGDDCRO_ClayLoam_S2_rainfed.PRM
  Tot(25)        1       10     2014    212.2    353.3   1511.8   398.65      0.0    210.7      1.5      0.0      0.0    122.7       67    188.1    187.2       93     0.000     0.000     0.000     0.000       72        0        0        0        0       24        5     7.859       90     55.1    4.332     1.39       13       12     2014  Essexvalley_TomatoGDDCRO_ClayLoam_S2_rainfed.PRM
  Tot(26)        1       10     2015    225.6    338.4   1507.2   400.83      0.0    224.8      0.8      0.0      0.0    137.0       82    194.4    194.6       96     0.000     0.000     0.000     0.000       71        0        0        0        0        4        3     8.316       96     55.3    4.600     1.39       12       12     2015  Essexvalley_TomatoGDDCRO_ClayLoam_S2_rainfed.PRM
  Tot(27)        1       10     2016    301.9    326.5   1516.9   404.21      0.0    286.6     15.3     16.5      0.0    141.5       91    199.1    198.0      100     0.000     0.000     0.000     0.000       72        0        0        0        0        1       -0     8.931      100     57.5    5.138     1.51       13       12     2016  Essexvalley_TomatoGDDCRO_ClayLoam_S2_rainfed.PRM
  Tot(28)        1       10     2017    468.2    308.9   1534.9   406.21      0.0    401.7     66.5     84.6      0.0    143.1       94    183.7    184.7      100     0.000     0.000     0.000     0.000       73        0        0        0        0        0        0     9.144      100     57.7    5.272     1.61       14       12     2017  Essexvalley_TomatoGDDCRO_ClayLoam_S2_rainfed.PRM
  Tot(29)        1       10     2018    163.0    346.4   1525.4   408.21      0.0    133.7     29.3     39.3      0.0    111.1       62    129.3    131.7       66     0.000     0.000     0.000     0.000       73        0        0        0        0       48       25     5.401       60     51.3    2.772     1.15       14       12     2018  Essexvalley_TomatoGDDCRO_ClayLoam_S2_rainfed.PRM
