AquaCrop 6.0 (March 2017) - Output created on (date) : 3/5/2021   at (time) : 4:07:31 PM

    RunNr     Day1   Month1    Year1     Rain      ETo       GD     CO2      Irri   Infilt   Runoff    Drain   Upflow        E     E/Ex       Tr      TrW   Tr/Trx    SaltIn   SaltOut    SaltUp  SaltProf     Cycle   SaltStr  FertStr  WeedStr  TempStr   ExpStr   StoStr  BioMass  Brelative   HI     Yield     WPet     DayN   MonthN    YearN
                                           mm       mm    °C.day    ppm        mm       mm       mm       mm       mm       mm        %       mm       mm        %    ton/ha    ton/ha    ton/ha    ton/ha      days       %        %        %        %        %        %    ton/ha        %       %    ton/ha    kg/m3
   Tot(1)        1        5     1990    171.6    444.4   1508.4   354.39      0.0    168.5      3.1      0.0      0.0    139.9       48    152.7    151.1       79     0.000     0.000     0.000     0.000       72        0        0        0        0       47       12     4.530       58     53.5    2.423     0.83       13        7     1990  Essexvalley_TomatoGDDCRO_Clay_S1_rainfed.PRM
   Tot(2)        1        5     1991    158.3    429.8   1522.3   355.61      0.0    153.7      4.6      9.5      0.0    152.1       61    125.2    126.2       59     0.000     0.000     0.000     0.000       73        0        0        0        0       51       34     3.707       46     50.8    1.885     0.68       14        7     1991  Essexvalley_TomatoGDDCRO_Clay_S1_rainfed.PRM
   Tot(3)        1        5     1992    140.9    441.6   1524.6   356.45      0.0    139.9      1.0      0.0      0.0    139.9       52    136.0    135.8       65     0.000     0.000     0.000     0.000       73        0        0        0        0       49       23     4.095       51     52.0    2.130     0.77       14        7     1992  Essexvalley_TomatoGDDCRO_Clay_S1_rainfed.PRM
   Tot(4)        1        5     1993    293.1    412.9   1536.0   356.10      0.0    276.1     17.0     50.0      0.0    177.9       95    161.9    161.1       61     0.000     0.000     0.000     0.000       74        0        0        0        0        1       44     4.935       61     55.2    2.726     0.80       15        7     1993  Essexvalley_TomatoGDDCRO_Clay_S1_rainfed.PRM
   Tot(5)        1        5     1994    105.0    485.5   1516.1   358.83      0.0    104.8      0.2      0.3      0.0    135.7       39    104.9    106.2       60     0.000     0.000     0.000     0.000       72        0        0        0        0       59       27     2.785       35     48.9    1.361     0.57       13        7     1994  Essexvalley_TomatoGDDCRO_Clay_S1_rainfed.PRM
   Tot(6)        1        5     1995    165.5    446.8   1497.6   360.82      0.0    164.1      1.4      7.7      0.0    168.8       51    114.8    114.2       73     0.000     0.000     0.000     0.000       71        0        0        0        0       59       18     3.321       42     50.6    1.680     0.59       12        7     1995  Essexvalley_TomatoGDDCRO_Clay_S1_rainfed.PRM
   Tot(7)        1        5     1996    158.9    453.2   1504.9   362.61      0.0    157.5      1.4      0.4      0.0    165.2       55    120.2    120.1       62     0.000     0.000     0.000     0.000       72        0        0        0        0       57       29     3.390       42     50.0    1.696     0.59       13        7     1996  Essexvalley_TomatoGDDCRO_Clay_S1_rainfed.PRM
   Tot(8)        1        5     1997    192.7    451.2   1525.0   363.73      0.0    174.3     18.4     26.2      0.0    127.7       44    137.6    136.8       67     0.000     0.000     0.000     0.000       73        0        0        0        0       30       25     4.243       52     55.9    2.372     0.89       14        7     1997  Essexvalley_TomatoGDDCRO_Clay_S1_rainfed.PRM
   Tot(9)        1        5     1998    182.2    453.0   1487.3   366.70      0.0    178.0      4.2      0.0      0.0    148.1       44    126.3    125.6       79     0.000     0.000     0.000     0.000       70        0        0        0        0       58       13     3.646       47     51.6    1.881     0.69       11        7     1998  Essexvalley_TomatoGDDCRO_Clay_S1_rainfed.PRM
  Tot(10)        1        5     1999    315.0    437.7   1523.4   368.38      0.0    308.3      6.7      7.6      0.0    173.0       74    215.7    213.8       87     0.000     0.000     0.000     0.000       73        0        0        0        0       15       13     6.757       82     56.9    3.847     0.99       14        7     1999  Essexvalley_TomatoGDDCRO_Clay_S1_rainfed.PRM
  Tot(11)        1        5     2000    162.3    464.6   1523.8   369.55      0.0    161.5      0.8      0.0      0.0    149.1       50    145.1    148.5       69     0.000     0.000     0.000     0.000       73        0        0        0        0       49       19     4.319       52     52.9    2.286     0.78       14        7     2000  Essexvalley_TomatoGDDCRO_Clay_S1_rainfed.PRM
  Tot(12)        1        5     2001    195.8    456.0   1520.0   371.14      0.0    178.4     17.4     31.0      0.0    168.9       66    115.4    116.3       51     0.000     0.000     0.000     0.000       73        0        0        0        0       52       49     3.346       40     46.6    1.559     0.55       14        7     2001  Essexvalley_TomatoGDDCRO_Clay_S1_rainfed.PRM
  Tot(13)        1        5     2002    387.8    420.4   1529.0   373.28      0.0    293.8     94.0    153.3      0.0    137.4       57    111.2    110.0       51     0.000     0.000     0.000     0.000       74        0        0        0        0       26       45     3.363       39     55.1    1.854     0.75       15        7     2002  Essexvalley_TomatoGDDCRO_Clay_S1_rainfed.PRM
  Tot(14)        1        5     2003    268.7    453.8   1513.6   375.80      0.0    256.7     12.0      9.4      0.0    161.9       60    190.4    188.9       84     0.000     0.000     0.000     0.000       72        0        0        0        0       28       15     5.869       71     55.0    3.227     0.92       13        7     2003  Essexvalley_TomatoGDDCRO_Clay_S1_rainfed.PRM
  Tot(15)        1        5     2004    108.4    464.3   1514.2   377.52      0.0    108.4      0.0      0.6      0.0    137.7       42    105.5    107.9       61     0.000     0.000     0.000     0.000       72        0        0        0        0       58       25     3.145       38     49.5    1.556     0.64       13        7     2004  Essexvalley_TomatoGDDCRO_Clay_S1_rainfed.PRM
  Tot(16)        1        5     2005    602.9    394.8   1524.2   379.80      0.0    434.5    168.4    175.5      0.0    179.7       88     68.3     68.7       30     0.000     0.000     0.000     0.000       72        0        0        0        0        5       59     2.258       27     55.7    1.258     0.51       13        7     2005  Essexvalley_TomatoGDDCRO_Clay_S1_rainfed.PRM
  Tot(17)        1        5     2006    237.9    434.4   1497.6   381.90      0.0    212.8     25.1     36.6      0.0    130.4       51    125.8    121.2       58     0.000     0.000     0.000     0.000       71        0        0        0        0       15       28     3.896       47     53.8    2.096     0.82       12        7     2006  Essexvalley_TomatoGDDCRO_Clay_S1_rainfed.PRM
  Tot(18)        1        5     2007    295.7    419.7   1518.2   383.79      0.0    257.6     38.1     81.6      0.0    162.4       84    120.1    122.9       45     0.000     0.000     0.000     0.000       72        0        0        0        0        2       50     3.621       43     54.3    1.965     0.70       13        7     2007  Essexvalley_TomatoGDDCRO_Clay_S1_rainfed.PRM
  Tot(19)        1        5     2008    159.7    434.4   1507.5   385.60      0.0    158.0      1.7      0.1      0.0    138.6       54    147.3    147.7       68     0.000     0.000     0.000     0.000       72        0        0        0        0       34       21     4.739       56     53.1    2.518     0.88       13        7     2008  Essexvalley_TomatoGDDCRO_Clay_S1_rainfed.PRM
  Tot(20)        1        5     2009    294.1    419.4   1537.4   387.43      0.0    275.7     18.4     49.6      0.0    172.2       78     69.7     68.4       29     0.000     0.000     0.000     0.000       74        0        0        0        0        8       57     2.456       28     59.4    1.458     0.60       15        7     2009  Essexvalley_TomatoGDDCRO_Clay_S1_rainfed.PRM
  Tot(21)        1        5     2010    408.7    405.8   1510.7   389.90      0.0    339.7     69.0     69.6      0.0    155.0       69    107.8    110.1       50     0.000     0.000     0.000     0.000       71        0        0        0        0       12       37     3.788       45     57.4    2.175     0.83       12        7     2010  Essexvalley_TomatoGDDCRO_Clay_S1_rainfed.PRM
  Tot(22)        1        5     2011    379.5    413.3   1526.9   391.65      0.0    322.1     57.4     67.3      0.0    146.5       60    114.2    113.2       55     0.000     0.000     0.000     0.000       73        0        0        0        0       15       31     3.994       46     57.5    2.298     0.88       14        7     2011  Essexvalley_TomatoGDDCRO_Clay_S1_rainfed.PRM
  Tot(23)        1        5     2012    241.9    435.9   1513.5   393.85      0.0    232.7      9.2      5.4      0.0    154.1       62    189.3    188.0       84     0.000     0.000     0.000     0.000       72        0        0        0        0       37       11     6.160       72     54.1    3.332     0.97       13        7     2012  Essexvalley_TomatoGDDCRO_Clay_S1_rainfed.PRM
  Tot(24)        1        5     2013    230.6    417.0   1509.4   396.52      0.0    229.3      1.3      1.5      0.0    151.6       65    189.1    187.7       86     0.000     0.000     0.000     0.000       72        0        0        0        0       33       10     6.659       77     54.1    3.601     1.06       13        7     2013  Essexvalley_TomatoGDDCRO_Clay_S1_rainfed.PRM
  Tot(25)        1        5     2014    189.3    427.2   1508.1   398.65      0.0    183.7      5.6      9.3      0.0    166.1       68    144.1    147.4       66     0.000     0.000     0.000     0.000       72        0        0        0        0       50       28     4.925       57     50.6    2.492     0.80       13        7     2014  Essexvalley_TomatoGDDCRO_Clay_S1_rainfed.PRM
  Tot(26)        1        5     2015    163.1    427.8   1509.3   400.83      0.0    159.0      4.1      1.7      0.0    132.3       51    145.9    145.1       70     0.000     0.000     0.000     0.000       72        0        0        0        0       34       19     5.059       58     53.5    2.708     0.97       13        7     2015  Essexvalley_TomatoGDDCRO_Clay_S1_rainfed.PRM
  Tot(27)        1        5     2016    229.1    426.5   1505.6   404.21      0.0    224.5      4.6      1.5      0.0    154.8       69    179.3    178.2       75     0.000     0.000     0.000     0.000       71        0        0        0        0        9       19     6.008       69     53.2    3.196     0.96       12        7     2016  Essexvalley_TomatoGDDCRO_Clay_S1_rainfed.PRM
  Tot(28)        1        5     2017    405.9    391.0   1512.5   406.21      0.0    257.3    148.6     55.1      0.0    140.1       67    178.2    179.2       82     0.000     0.000     0.000     0.000       72        0        0        0        0       38       20     6.565       74     53.9    3.539     1.11       13        7     2017  Essexvalley_TomatoGDDCRO_Clay_S1_rainfed.PRM
  Tot(29)        1        5     2018    244.8    397.3   1520.3   408.21      0.0    230.0     14.8     31.7      0.0    159.5       84    164.9    165.5       68     0.000     0.000     0.000     0.000       73        0        0        0        0       27       35     6.137       68     54.0    3.316     1.02       14        7     2018  Essexvalley_TomatoGDDCRO_Clay_S1_rainfed.PRM
