AquaCrop 6.0 (March 2017) - Output created on (date) : 3/5/2021   at (time) : 4:01:46 PM

    RunNr     Day1   Month1    Year1     Rain      ETo       GD     CO2      Irri   Infilt   Runoff    Drain   Upflow        E     E/Ex       Tr      TrW   Tr/Trx    SaltIn   SaltOut    SaltUp  SaltProf     Cycle   SaltStr  FertStr  WeedStr  TempStr   ExpStr   StoStr  BioMass  Brelative   HI     Yield     WPet     DayN   MonthN    YearN
                                           mm       mm    °C.day    ppm        mm       mm       mm       mm       mm       mm        %       mm       mm        %    ton/ha    ton/ha    ton/ha    ton/ha      days       %        %        %        %        %        %    ton/ha        %       %    ton/ha    kg/m3
   Tot(1)        1       10     1990    343.3    477.9   1301.2   355.00    177.1    309.6     33.7     30.3      0.0    126.5       87    365.6    365.6      100     0.000     0.000     0.000     0.000       99        0        0        0        0        0        0    16.003      100     53.8    8.613     1.76       13        1     1991  Essexvalley_SweetPotatoGDDCRO_ClayLoam_S2_riegoIRR.PRM
   Tot(2)        1       10     1991    186.5    510.5   1301.4   356.03    333.2    165.6     20.9      1.7      0.0    138.9       91    394.6    394.6      100     0.000     0.000     0.000     0.000      101        0        0        0        0        0        0    16.230      100     53.8    8.735     1.64       15        1     1992  Essexvalley_SweetPotatoGDDCRO_ClayLoam_S2_riegoIRR.PRM
   Tot(3)        1       10     1992     80.8    518.5   1300.6   356.27    415.2     80.6      0.2      0.0      0.0    131.3       84    401.1    401.1      100     0.000     0.000     0.000     0.000       96        0        0        0        0        0        0    15.431      100     53.8    8.303     1.57       10        1     1993  Essexvalley_SweetPotatoGDDCRO_ClayLoam_S2_riegoIRR.PRM
   Tot(4)        1       10     1993    197.7    508.3   1303.0   357.47    316.2    181.0     16.7      1.6      0.0    139.1       91    392.4    392.4      100     0.000     0.000     0.000     0.000       99        0        0        0        0        0        0    16.013      100     53.8    8.612     1.63       13        1     1994  Essexvalley_SweetPotatoGDDCRO_ClayLoam_S2_riegoIRR.PRM
   Tot(5)        1       10     1994    216.2    508.8   1295.3   359.82    316.3    185.8     30.4      9.3      0.0    137.9       88    389.7    389.7      100     0.000     0.000     0.000     0.000       98        0        0        0        0        0        0    15.916      100     53.6    8.538     1.63       12        1     1995  Essexvalley_SweetPotatoGDDCRO_ClayLoam_S2_riegoIRR.PRM
   Tot(6)        1       10     1995    250.8    492.8   1300.4   361.72    320.7    220.6     30.2     55.0      0.0    137.5       95    383.3    383.3      100     0.000     0.000     0.000     0.000       96        0        0        0        0        0        0    15.571      100     53.8    8.373     1.61       11        1     1996  Essexvalley_SweetPotatoGDDCRO_ClayLoam_S2_riegoIRR.PRM
   Tot(7)        1       10     1996    268.9    514.0   1299.9   363.17    305.6    231.9     37.0     34.8      0.0    132.2       92    407.1    407.1      100     0.000     0.000     0.000     0.000      102        0        0        0        0        0       -0    16.757      100     53.7    8.995     1.67       16        1     1997  Essexvalley_SweetPotatoGDDCRO_ClayLoam_S2_riegoIRR.PRM
   Tot(8)        1       10     1997    267.6    493.2   1296.7   365.22    289.8    232.1     35.5     38.6      0.0    140.4       93    379.4    379.4      100     0.000     0.000     0.000     0.000       96        0        0        0        0        0        0    15.663      100     53.6    8.401     1.62       11        1     1998  Essexvalley_SweetPotatoGDDCRO_ClayLoam_S2_riegoIRR.PRM
   Tot(9)        1       10     1998    423.0    474.5   1300.0   367.54    168.5    340.7     82.3     49.3      0.0    124.6       88    367.9    367.9      100     0.000     0.000     0.000     0.000       98        0        0        0        0        0        0    16.314      100     53.8    8.780     1.79       12        1     1999  Essexvalley_SweetPotatoGDDCRO_ClayLoam_S2_riegoIRR.PRM
  Tot(10)        1       10     1999    511.5    512.1   1301.2   368.97    238.8    393.7    117.8    127.8      0.0    131.0       96    410.1    410.1      100     0.000     0.000     0.000     0.000      108        0        0        0        0        0        0    18.145      100     53.9    9.772     1.81       22        1     2000  Essexvalley_SweetPotatoGDDCRO_ClayLoam_S2_riegoIRR.PRM
  Tot(11)        1       10     2000    461.5    495.6   1298.6   370.35    194.7    361.3    100.2     75.1      0.0    140.4       90    376.0    376.0      100     0.000     0.000     0.000     0.000      101        0        0        0        0        0        0    16.929      100     53.8    9.109     1.77       16        1     2001  Essexvalley_SweetPotatoGDDCRO_ClayLoam_S2_riegoIRR.PRM
  Tot(12)        1       10     2001    507.6    474.8   1300.2   372.21    125.4    420.6     87.0     72.6      0.0    136.3       93    362.9    362.9      100     0.000     0.000     0.000     0.000      100        0        0        0        0        0        0    16.933      100     53.8    9.114     1.83       14        1     2002  Essexvalley_SweetPotatoGDDCRO_ClayLoam_S2_riegoIRR.PRM
  Tot(13)        1       10     2002    231.9    483.9   1294.9   374.54    292.0    204.0     27.9     23.8      0.0    126.0       88    377.3    377.3      100     0.000     0.000     0.000     0.000       96        0        0        0        0        0        0    16.099      100     53.8    8.662     1.73       10        1     2003  Essexvalley_SweetPotatoGDDCRO_ClayLoam_S2_riegoIRR.PRM
  Tot(14)        1       10     2003    328.1    494.5   1300.3   376.66    197.4    290.5     37.6      1.5      0.0    134.5       94    387.7    387.7      100     0.000     0.000     0.000     0.000       96        0        0        0        0        0        0    16.284      100     53.8    8.757     1.68       10        1     2004  Essexvalley_SweetPotatoGDDCRO_ClayLoam_S2_riegoIRR.PRM
  Tot(15)        1       10     2004    153.6    540.4   1303.2   378.66    378.9    146.1      7.5      1.0      0.0    134.5       87    424.5    424.5      100     0.000     0.000     0.000     0.000       97        0        0        0        0        0        0    16.673      100     53.8    8.974     1.61       11        1     2005  Essexvalley_SweetPotatoGDDCRO_ClayLoam_S2_riegoIRR.PRM
  Tot(16)        1       10     2005    746.8    451.8   1301.8   380.85    112.9    535.3    211.5    203.6      0.0    118.4       99    362.4    362.4      100     0.000     0.000     0.000     0.000      100        0        0        0        0        0        0    17.014      100     55.0    9.358     1.95       15        1     2006  Essexvalley_SweetPotatoGDDCRO_ClayLoam_S2_riegoIRR.PRM
  Tot(17)        1       10     2006    263.9    483.4   1303.0   382.85    249.6    223.6     40.3      7.8      0.0    133.5       90    368.2    368.2      100     0.000     0.000     0.000     0.000       93        0        0        0        0        0        0    16.063      100     53.8    8.647     1.73        7        1     2007  Essexvalley_SweetPotatoGDDCRO_ClayLoam_S2_riegoIRR.PRM
  Tot(18)        1       10     2007    574.1    468.2   1302.7   384.70    195.1    437.2    136.9    172.2      0.0    121.6       98    375.1    375.1      100     0.000     0.000     0.000     0.000      101        0        0        0        0        0        0    17.363      100     55.0    9.550     1.93       16        1     2008  Essexvalley_SweetPotatoGDDCRO_ClayLoam_S2_riegoIRR.PRM
  Tot(19)        1       10     2008    325.1    486.5   1305.4   386.51    245.1    277.6     47.5     47.1      0.0    131.2       95    381.2    381.2      100     0.000     0.000     0.000     0.000      101        0        0        0        0        0        0    17.607      100     53.9    9.483     1.86       15        1     2009  Essexvalley_SweetPotatoGDDCRO_ClayLoam_S2_riegoIRR.PRM
  Tot(20)        1       10     2009    248.9    480.2   1301.9   388.66    253.2    214.5     34.4      0.0      0.0    134.7       93    369.0    369.0      100     0.000     0.000     0.000     0.000       95        0        0        0        0        0        0    16.580      100     53.8    8.921     1.78        9        1     2010  Essexvalley_SweetPotatoGDDCRO_ClayLoam_S2_riegoIRR.PRM
  Tot(21)        1       10     2010    327.1    498.5   1299.7   390.77    247.1    278.7     48.4     40.2      0.0    127.9       94    394.5    394.5      100     0.000     0.000     0.000     0.000      106        0        0        0        0        0        0    18.768      100     53.9   10.108     1.94       21        1     2011  Essexvalley_SweetPotatoGDDCRO_ClayLoam_S2_riegoIRR.PRM
  Tot(22)        1       10     2011    244.9    496.3   1294.8   392.75    279.2    226.0     18.9     15.2      0.0    135.6       97    391.4    391.4      100     0.000     0.000     0.000     0.000       97        0        0        0        0        0        0    16.963      100     53.7    9.107     1.73       11        1     2012  Essexvalley_SweetPotatoGDDCRO_ClayLoam_S2_riegoIRR.PRM
  Tot(23)        1       10     2012    261.2    493.6   1296.6   395.19    296.5    208.9     52.3     24.8      0.0    132.1       92    383.5    383.5      100     0.000     0.000     0.000     0.000       98        0        0        0        0        0        0    17.281      100     53.8    9.301     1.81       12        1     2013  Essexvalley_SweetPotatoGDDCRO_ClayLoam_S2_riegoIRR.PRM
  Tot(24)        1       10     2013    186.1    474.9   1300.2   397.58    285.2    174.6     11.5      1.2      0.0    127.2       91    367.4    367.4      100     0.000     0.000     0.000     0.000       94        0        0        0        0        0        0    16.604      100     53.8    8.938     1.81        8        1     2014  Essexvalley_SweetPotatoGDDCRO_ClayLoam_S2_riegoIRR.PRM
  Tot(25)        1       10     2014    264.0    479.6   1298.5   399.74    216.0    237.9     26.1      0.0      0.0    127.6       86    362.7    362.7      100     0.000     0.000     0.000     0.000       96        0        0        0        0        0        0    17.076      100     53.8    9.182     1.88       10        1     2015  Essexvalley_SweetPotatoGDDCRO_ClayLoam_S2_riegoIRR.PRM
  Tot(26)        1       10     2015    253.0    457.8   1296.7   402.52    203.4    238.9     14.1      0.0      0.0    129.0       94    350.7    350.7      100     0.000     0.000     0.000     0.000       93        0        0        0        0        0        0    16.665      100     53.8    8.971     1.88        7        1     2016  Essexvalley_SweetPotatoGDDCRO_ClayLoam_S2_riegoIRR.PRM
  Tot(27)        1       10     2016    312.8    451.0   1299.7   405.21    171.2    277.7     35.1     12.5      0.0    125.4       95    347.9    347.9      100     0.000     0.000     0.000     0.000       95        0        0        0        0        0        0    17.088      100     53.8    9.194     1.95        9        1     2017  Essexvalley_SweetPotatoGDDCRO_ClayLoam_S2_riegoIRR.PRM
  Tot(28)        1       10     2017    562.0    423.3   1294.3   407.21     73.2    458.6    103.4     79.0      0.0    123.8       96    324.6    320.7      100     0.000     0.000     0.000     0.000       98        0        0        0        0        0        0    17.802      100     53.8    9.581     2.14       11        1     2018  Essexvalley_SweetPotatoGDDCRO_ClayLoam_S2_riegoIRR.PRM
  Tot(29)        1       10     2018    186.4    477.5   1302.6   409.21    344.9    156.4     30.0     39.1      0.0    131.4       94    368.0    371.9      100     0.000     0.000     0.000     0.000       96        0        0        0        0        0        0    17.200      100     53.8    9.254     1.86       11        1     2019  Essexvalley_SweetPotatoGDDCRO_ClayLoam_S2_riegoIRR.PRM
