AquaCrop 6.0 (March 2017) - Output created on (date) : 3/5/2021   at (time) : 4:04:50 PM

    RunNr     Day1   Month1    Year1     Rain      ETo       GD     CO2      Irri   Infilt   Runoff    Drain   Upflow        E     E/Ex       Tr      TrW   Tr/Trx    SaltIn   SaltOut    SaltUp  SaltProf     Cycle   SaltStr  FertStr  WeedStr  TempStr   ExpStr   StoStr  BioMass  Brelative   HI     Yield     WPet     DayN   MonthN    YearN
                                           mm       mm    °C.day    ppm        mm       mm       mm       mm       mm       mm        %       mm       mm        %    ton/ha    ton/ha    ton/ha    ton/ha      days       %        %        %        %        %        %    ton/ha        %       %    ton/ha    kg/m3
   Tot(1)        1       10     1990    343.3    477.9   1301.2   355.00      0.0    340.8      2.5     59.0      0.0     69.4       47    319.7    319.7       88     0.000     0.000     0.000     0.000       99        0        0        0        0        1        9    14.240       90     49.3    7.017     1.80       13        1     1991  Essexvalley_SweetPotatoGDDCRO_Sand_S2_rainfed.PRM
   Tot(2)        1       10     1991    186.5    510.5   1301.4   356.03      0.0    182.6      3.9      0.0      0.0     96.5       57    193.9    193.9       52     0.000     0.000     0.000     0.000      101        0        0        0        0       52       39     7.923       49     29.7    2.351     0.81       15        1     1992  Essexvalley_SweetPotatoGDDCRO_Sand_S2_rainfed.PRM
   Tot(3)        1       10     1992     80.8    518.5   1300.6   356.27      0.0     80.8      0.0      0.0      0.0     86.0       32     91.4     91.4       33     0.000     0.000     0.000     0.000       96        0        0        0        0       69       55     3.594       24     20.0    0.717     0.41       10        1     1993  Essexvalley_SweetPotatoGDDCRO_Sand_S2_rainfed.PRM
   Tot(4)        1       10     1993    197.7    508.3   1303.0   357.47      0.0    196.1      1.6      5.2      0.0    104.2       55    192.6    192.6       54     0.000     0.000     0.000     0.000       99        0        0        0        0       54       36     8.238       52     32.4    2.672     0.90       13        1     1994  Essexvalley_SweetPotatoGDDCRO_Sand_S2_rainfed.PRM
   Tot(5)        1       10     1994    216.2    508.8   1295.3   359.82      0.0    209.4      6.8     13.8      0.0     87.6       53    216.3    216.3       58     0.000     0.000     0.000     0.000       98        0        0        0        0       22       33     9.031       57     32.3    2.920     0.97       12        1     1995  Essexvalley_SweetPotatoGDDCRO_Sand_S2_rainfed.PRM
   Tot(6)        1       10     1995    250.8    492.8   1300.4   361.72      0.0    245.8      5.0     81.6      0.0    127.1       66    141.8    141.8       43     0.000     0.000     0.000     0.000       96        0        0        0        0       62       46     5.864       38     29.8    1.749     0.66       11        1     1996  Essexvalley_SweetPotatoGDDCRO_Sand_S2_rainfed.PRM
   Tot(7)        1       10     1996    268.9    514.0   1299.9   363.17      0.0    261.3      7.6     29.8      0.0    107.6       69    232.1    232.1       59     0.000     0.000     0.000     0.000      102        0        0        0        0       23       32     9.844       59     33.6    3.304     0.97       16        1     1997  Essexvalley_SweetPotatoGDDCRO_Sand_S2_rainfed.PRM
   Tot(8)        1       10     1997    267.6    493.2   1296.7   365.22      0.0    260.2      7.4     68.5      0.0    117.1       66    179.7    179.7       51     0.000     0.000     0.000     0.000       96        0        0        0        0       56       38     7.516       48     28.7    2.158     0.73       11        1     1998  Essexvalley_SweetPotatoGDDCRO_Sand_S2_rainfed.PRM
   Tot(9)        1       10     1998    423.0    474.5   1300.0   367.54      0.0    405.1     17.9    101.6      0.0     93.0       66    311.9    311.9       85     0.000     0.000     0.000     0.000       98        0        0        0        0        0       12    13.888       86     48.0    6.673     1.66       12        1     1999  Essexvalley_SweetPotatoGDDCRO_Sand_S2_rainfed.PRM
  Tot(10)        1       10     1999    511.5    512.1   1301.2   368.97      0.0    479.3     32.2    229.9      0.0    118.7       85    240.1    240.1       60     0.000     0.000     0.000     0.000      108        0        0        0        0        7       32    11.091       62     33.6    3.727     1.04       22        1     2000  Essexvalley_SweetPotatoGDDCRO_Sand_S2_rainfed.PRM
  Tot(11)        1       10     2000    461.5    495.6   1298.6   370.35      0.0    435.6     25.9     89.8      0.0     80.6       48    306.2    306.2       84     0.000     0.000     0.000     0.000      101        0        0        0        0       34       12    14.181       84     47.9    6.799     1.76       16        1     2001  Essexvalley_SweetPotatoGDDCRO_Sand_S2_rainfed.PRM
  Tot(12)        1       10     2001    507.6    474.8   1300.2   372.21      0.0    489.8     17.8    135.1      0.0    104.7       71    322.4    322.4       89     0.000     0.000     0.000     0.000      100        0        0        0        0        0        9    15.126       90     49.9    7.547     1.77       14        1     2002  Essexvalley_SweetPotatoGDDCRO_Sand_S2_rainfed.PRM
  Tot(13)        1       10     2002    231.9    483.9   1294.9   374.54      0.0    227.0      4.9     44.8      0.0    101.8       58    174.4    174.4       52     0.000     0.000     0.000     0.000       96        0        0        0        0       59       38     7.600       48     30.1    2.286     0.83       10        1     2003  Essexvalley_SweetPotatoGDDCRO_Sand_S2_rainfed.PRM
  Tot(14)        1       10     2003    328.1    494.5   1300.3   376.66      0.0    326.3      1.8      6.0      0.0     98.0       68    326.9    326.9       85     0.000     0.000     0.000     0.000       96        0        0        0        0        2       12    13.864       86     48.3    6.697     1.58       10        1     2004  Essexvalley_SweetPotatoGDDCRO_Sand_S2_rainfed.PRM
  Tot(15)        1       10     2004    153.6    540.4   1303.2   378.66      0.0    153.6      0.0      3.1      0.0     88.7       40    159.5    159.5       45     0.000     0.000     0.000     0.000       97        0        0        0        0       62       44     6.472       39     26.3    1.702     0.69       11        1     2005  Essexvalley_SweetPotatoGDDCRO_Sand_S2_rainfed.PRM
  Tot(16)        1       10     2005    746.8    451.8   1301.8   380.85      0.0    686.0     60.8    324.2      0.0    115.6       96    330.9    330.9       91     0.000     0.000     0.000     0.000      100        0        0        0        0        1        7    15.527       92     52.3    8.126     1.82       15        1     2006  Essexvalley_SweetPotatoGDDCRO_Sand_S2_rainfed.PRM
  Tot(17)        1       10     2006    263.9    483.4   1303.0   382.85      0.0    258.9      5.0      1.6      0.0     72.3       48    294.0    294.0       80     0.000     0.000     0.000     0.000       93        0        0        0        0        2       15    13.050       82     45.1    5.891     1.61        7        1     2007  Essexvalley_SweetPotatoGDDCRO_Sand_S2_rainfed.PRM
  Tot(18)        1       10     2007    574.1    468.2   1302.7   384.70      0.0    535.7     38.4    275.0      0.0    113.6       91    256.7    256.7       69     0.000     0.000     0.000     0.000      101        0        0        0        0        0       25    11.974       69     39.4    4.712     1.27       16        1     2008  Essexvalley_SweetPotatoGDDCRO_Sand_S2_rainfed.PRM
  Tot(19)        1       10     2008    325.1    486.5   1305.4   386.51      0.0    316.2      8.9     90.2      0.0    106.4       75    231.4    231.4       62     0.000     0.000     0.000     0.000      101        0        0        0        0        8       31    10.932       63     33.8    3.697     1.10       15        1     2009  Essexvalley_SweetPotatoGDDCRO_Sand_S2_rainfed.PRM
  Tot(20)        1       10     2009    248.9    480.2   1301.9   388.66      0.0    244.5      4.4      4.9      0.0    109.4       70    217.6    217.6       62     0.000     0.000     0.000     0.000       95        0        0        0        0       49       29    10.104       61     36.0    3.642     1.12        9        1     2010  Essexvalley_SweetPotatoGDDCRO_Sand_S2_rainfed.PRM
  Tot(21)        1       10     2010    327.1    498.5   1299.7   390.77      0.0    320.4      6.7     83.3      0.0    109.3       79    235.4    235.4       60     0.000     0.000     0.000     0.000      106        0        0        0        0        4       33    11.250       60     33.5    3.773     1.10       21        1     2011  Essexvalley_SweetPotatoGDDCRO_Sand_S2_rainfed.PRM
  Tot(22)        1       10     2011    244.9    496.3   1294.8   392.75      0.0    243.2      1.7     40.5      0.0    127.7       86    179.3    179.3       48     0.000     0.000     0.000     0.000       97        0        0        0        0       52       43     7.767       46     25.2    1.960     0.64       11        1     2012  Essexvalley_SweetPotatoGDDCRO_Sand_S2_rainfed.PRM
  Tot(23)        1       10     2012    261.2    493.6   1296.6   395.19      0.0    249.1     12.1     67.0      0.0     90.0       61    199.6    199.6       54     0.000     0.000     0.000     0.000       98        0        0        0        0       26       38     9.131       53     30.0    2.744     0.95       12        1     2013  Essexvalley_SweetPotatoGDDCRO_Sand_S2_rainfed.PRM
  Tot(24)        1       10     2013    186.1    474.9   1300.2   397.58      0.0    186.0      0.1      3.6      0.0     82.2       57    207.9    207.9       58     0.000     0.000     0.000     0.000       94        0        0        0        0       27       33     9.524       58     32.0    3.044     1.05        8        1     2014  Essexvalley_SweetPotatoGDDCRO_Sand_S2_rainfed.PRM
  Tot(25)        1       10     2014    264.0    479.6   1298.5   399.74      0.0    262.1      1.9      3.7      0.0     81.1       53    283.5    283.5       79     0.000     0.000     0.000     0.000       96        0        0        0        0       30       16    13.529       80     46.0    6.227     1.71       10        1     2015  Essexvalley_SweetPotatoGDDCRO_Sand_S2_rainfed.PRM
  Tot(26)        1       10     2015    253.0    457.8   1296.7   402.52      0.0    252.9      0.1      1.5      0.0    100.4       72    260.0    260.0       75     0.000     0.000     0.000     0.000       93        0        0        0        0        5       20    12.478       75     42.5    5.304     1.47        7        1     2016  Essexvalley_SweetPotatoGDDCRO_Sand_S2_rainfed.PRM
  Tot(27)        1       10     2016    312.8    451.0   1299.7   405.21      0.0    307.3      5.5     33.5      0.0    108.8       82    274.0    274.0       79     0.000     0.000     0.000     0.000       95        0        0        0        0        3       17    13.632       80     44.4    6.056     1.58        9        1     2017  Essexvalley_SweetPotatoGDDCRO_Sand_S2_rainfed.PRM
  Tot(28)        1       10     2017    562.0    423.3   1294.3   407.21      0.0    541.6     20.4    145.7      0.0    108.9       85    321.3    317.4       99     0.000     0.000     0.000     0.000       98        0        0        0        0        0        1    17.623      100     53.6    9.442     2.19       11        1     2018  Essexvalley_SweetPotatoGDDCRO_Sand_S2_rainfed.PRM
  Tot(29)        1       10     2018    186.4    477.5   1302.6   409.21      0.0    179.0      7.4     63.8      0.0    111.8       52    104.1    108.0       36     0.000     0.000     0.000     0.000       96        0        0        0        0       64       53     4.859       28     21.7    1.056     0.49       11        1     2019  Essexvalley_SweetPotatoGDDCRO_Sand_S2_rainfed.PRM
