AquaCrop 6.0 (March 2017) - Output created on (date) : 3/5/2021   at (time) : 3:50:04 PM

    RunNr     Day1   Month1    Year1     Rain      ETo       GD     CO2      Irri   Infilt   Runoff    Drain   Upflow        E     E/Ex       Tr      TrW   Tr/Trx    SaltIn   SaltOut    SaltUp  SaltProf     Cycle   SaltStr  FertStr  WeedStr  TempStr   ExpStr   StoStr  BioMass  Brelative   HI     Yield     WPet     DayN   MonthN    YearN
                                           mm       mm    °C.day    ppm        mm       mm       mm       mm       mm       mm        %       mm       mm        %    ton/ha    ton/ha    ton/ha    ton/ha      days       %        %        %        %        %        %    ton/ha        %       %    ton/ha    kg/m3
   Tot(1)       31        5     1990    184.7    581.8   1666.0   354.39      0.0    181.5      3.2      5.0      0.0    184.0       57    206.9    204.9       70     0.000     0.000     0.000     0.000       89        0        0        0        0       41       28     4.766       67     26.5    1.263     0.32        2        9     1990  Essexvalley_GroundnutGDDCRO_Clay_S1_rainfed.PRM
   Tot(2)       31        5     1991    111.3    574.3   1677.8   355.61      0.0    111.3      0.0      0.0      0.0    129.3       40    190.8    192.4       68     0.000     0.000     0.000     0.000       90        0        0        0        0       42       23     4.585       64     26.5    1.215     0.38        3        9     1991  Essexvalley_GroundnutGDDCRO_Clay_S1_rainfed.PRM
   Tot(3)       31        5     1992    127.4    583.3   1671.7   356.45      0.0    127.3      0.1      0.0      0.0    152.8       47    196.6    197.0       68     0.000     0.000     0.000     0.000       89        0        0        0        0       42       25     4.590       64     26.5    1.216     0.35        2        9     1992  Essexvalley_GroundnutGDDCRO_Clay_S1_rainfed.PRM
   Tot(4)       31        5     1993    175.4    579.5   1697.2   356.10      0.0    169.5      5.9     15.5      0.0    174.9       54    195.3    195.2       69     0.000     0.000     0.000     0.000       91        0        0        0        0       42       24     4.587       63     26.5    1.215     0.33        4        9     1993  Essexvalley_GroundnutGDDCRO_Clay_S1_rainfed.PRM
   Tot(5)       31        5     1994    112.2    629.7   1674.6   358.83      0.0    112.2      0.0      0.0      0.0    134.0       36    192.6    192.3       64     0.000     0.000     0.000     0.000       89        0        0        0        0       48       26     4.185       58     26.5    1.109     0.34        2        9     1994  Essexvalley_GroundnutGDDCRO_Clay_S1_rainfed.PRM
   Tot(6)       31        5     1995    252.9    562.4   1663.2   360.82      0.0    251.3      1.6      8.1      0.0    196.9       63    257.9    257.4       89     0.000     0.000     0.000     0.000       88        0        0        0        0       16        8     6.375       89     26.5    1.689     0.37        1        9     1995  Essexvalley_GroundnutGDDCRO_Clay_S1_rainfed.PRM
   Tot(7)       31        5     1996    178.6    580.8   1668.7   362.61      0.0    178.6      0.0      0.2      0.0    164.4       50    232.3    232.6       80     0.000     0.000     0.000     0.000       89        0        0        0        0       28       14     5.745       79     26.5    1.523     0.38        2        9     1996  Essexvalley_GroundnutGDDCRO_Clay_S1_rainfed.PRM
   Tot(8)       31        5     1997    230.4    551.6   1699.7   363.73      0.0    215.5     14.9     35.8      0.0    172.9       58    218.4    218.3       76     0.000     0.000     0.000     0.000       91        0        0        0        0       39       21     5.488       74     26.5    1.454     0.37        4        9     1997  Essexvalley_GroundnutGDDCRO_Clay_S1_rainfed.PRM
   Tot(9)       31        5     1998    250.1    560.8   1644.9   366.70      0.0    245.4      4.7      0.0      0.0    178.2       56    249.4    245.7       88     0.000     0.000     0.000     0.000       87        0        0        0        0        0       10     6.227       88     26.5    1.650     0.39       30        8     1998  Essexvalley_GroundnutGDDCRO_Clay_S1_rainfed.PRM
  Tot(10)       31        5     1999    307.8    562.1   1683.4   368.38      0.0    301.2      6.6     10.2      0.0    220.5       71    263.9    265.3       90     0.000     0.000     0.000     0.000       90        0        0        0        0        0       12     6.719       90     26.5    1.781     0.37        3        9     1999  Essexvalley_GroundnutGDDCRO_Clay_S1_rainfed.PRM
  Tot(11)       31        5     2000    294.7    578.0   1694.8   369.55      0.0    283.1     11.6     13.8      0.0    175.6       56    276.9    276.4       92     0.000     0.000     0.000     0.000       91        0        0        0        0        7        6     6.988       92     26.5    1.852     0.41        4        9     2000  Essexvalley_GroundnutGDDCRO_Clay_S1_rainfed.PRM
  Tot(12)       31        5     2001    132.9    583.9   1652.8   371.14      0.0    132.7      0.2      2.5      0.0    126.0       37    217.6    220.7       76     0.000     0.000     0.000     0.000       88        0        0        0        0       38       16     5.401       74     26.5    1.431     0.42        1        9     2001  Essexvalley_GroundnutGDDCRO_Clay_S1_rainfed.PRM
  Tot(13)       31        5     2002    247.7    553.0   1690.9   373.28      0.0    222.3     25.4     51.5      0.0    171.1       56    202.5    202.1       72     0.000     0.000     0.000     0.000       91        0        0        0        0       41       26     5.233       69     26.5    1.387     0.37        4        9     2002  Essexvalley_GroundnutGDDCRO_Clay_S1_rainfed.PRM
  Tot(14)       31        5     2003    300.4    565.3   1670.7   375.80      0.0    296.3      4.1      2.3      0.0    228.2       73    261.0    257.4       90     0.000     0.000     0.000     0.000       89        0        0        0        0        6       13     6.740       90     26.5    1.786     0.37        2        9     2003  Essexvalley_GroundnutGDDCRO_Clay_S1_rainfed.PRM
  Tot(15)       31        5     2004    170.1    586.3   1659.0   377.52      0.0    168.5      1.6      0.4      0.0    146.8       44    236.0    239.8       80     0.000     0.000     0.000     0.000       88        0        0        0        0       36       13     5.855       79     26.5    1.552     0.41        1        9     2004  Essexvalley_GroundnutGDDCRO_Clay_S1_rainfed.PRM
  Tot(16)       31        5     2005    605.5    501.0   1687.5   379.80      0.0    450.3    155.2    151.2      0.0    248.6       92    172.7    169.0       65     0.000     0.000     0.000     0.000       90        0        0        0        0        0       45     4.870       64     25.3    1.231     0.29        2        9     2005  Essexvalley_GroundnutGDDCRO_Clay_S1_rainfed.PRM
  Tot(17)       31        5     2006    347.9    545.0   1677.5   381.90      0.0    319.7     28.2     64.1      0.0    190.4       65    266.6    268.8       93     0.000     0.000     0.000     0.000       89        0        0        0        0        6       11     7.005       92     26.5    1.856     0.41        2        9     2006  Essexvalley_GroundnutGDDCRO_Clay_S1_rainfed.PRM
  Tot(18)       31        5     2007    256.4    551.0   1676.2   383.79      0.0    249.8      6.6      2.4      0.0    164.0       53    270.8    269.1       97     0.000     0.000     0.000     0.000       90        0        0        0        0       23        5     7.324       96     26.5    1.941     0.45        2        9     2007  Essexvalley_GroundnutGDDCRO_Clay_S1_rainfed.PRM
  Tot(19)       31        5     2008    423.7    540.8   1670.5   385.60      0.0    355.0     68.7     13.2      0.0    173.1       58    278.3    279.4      100     0.000     0.000     0.000     0.000       89        0        0        0        0        0        3     7.628      100     26.5    2.021     0.45        2        9     2008  Essexvalley_GroundnutGDDCRO_Clay_S1_rainfed.PRM
  Tot(20)       31        5     2009    234.8    552.0   1686.5   387.43      0.0    231.2      3.6      6.1      0.0    207.0       71    227.0    227.2       77     0.000     0.000     0.000     0.000       90        0        0        0        0       23       25     5.928       76     26.5    1.571     0.36        3        9     2009  Essexvalley_GroundnutGDDCRO_Clay_S1_rainfed.PRM
  Tot(21)       31        5     2010    506.9    500.0   1670.7   389.90      0.0    446.1     60.8    205.4      0.0    209.6       76     21.6     24.0        8     0.000     0.000     0.000     0.000       89        0        0        0        0        0       72     0.629        8     25.0    0.157     0.07        1        9     2010  Essexvalley_GroundnutGDDCRO_Clay_S1_rainfed.PRM
  Tot(22)       31        5     2011    523.5    514.8   1689.9   391.65      0.0    447.2     76.3    167.5      0.0    218.0       79     56.5     56.3       21     0.000     0.000     0.000     0.000       90        0        0        0        0        0       61     1.594       20     25.9    0.413     0.15        3        9     2011  Essexvalley_GroundnutGDDCRO_Clay_S1_rainfed.PRM
  Tot(23)       31        5     2012    345.6    550.4   1672.9   393.85      0.0    321.9     23.7     15.6      0.0    200.9       65    276.5    272.3       99     0.000     0.000     0.000     0.000       89        0        0        0        0       11        9     7.664       98     26.5    2.031     0.43        2        9     2012  Essexvalley_GroundnutGDDCRO_Clay_S1_rainfed.PRM
  Tot(24)       31        5     2013    283.8    532.9   1669.5   396.52      0.0    281.5      2.3      6.0      0.0    193.5       67    266.2    266.8       96     0.000     0.000     0.000     0.000       90        0        0        0        0        1        6     7.502       96     26.5    1.988     0.43        2        9     2013  Essexvalley_GroundnutGDDCRO_Clay_S1_rainfed.PRM
  Tot(25)       31        5     2014    215.7    548.1   1670.9   398.65      0.0    210.6      5.1      2.5      0.0    158.5       52    233.2    233.0       84     0.000     0.000     0.000     0.000       89        0        0        0        0       38       12     6.442       82     26.5    1.707     0.44        2        9     2014  Essexvalley_GroundnutGDDCRO_Clay_S1_rainfed.PRM
  Tot(26)       31        5     2015    200.0    547.2   1670.8   400.83      0.0    185.1     14.9     30.4      0.0    167.1       56    199.6    203.4       72     0.000     0.000     0.000     0.000       89        0        0        0        0       39       25     5.471       69     26.5    1.450     0.40        2        9     2015  Essexvalley_GroundnutGDDCRO_Clay_S1_rainfed.PRM
  Tot(27)       31        5     2016    302.8    528.6   1652.5   404.21      0.0    288.3     14.5     26.5      0.0    185.6       63    256.6    253.2       95     0.000     0.000     0.000     0.000       88        0        0        0        0        9        9     7.318       95     26.5    1.939     0.44       31        8     2016  Essexvalley_GroundnutGDDCRO_Clay_S1_rainfed.PRM
  Tot(28)       31        5     2017    297.3    525.7   1679.6   406.21      0.0    215.3     82.0     16.9      0.0    180.9       63    228.6    231.3       83     0.000     0.000     0.000     0.000       89        0        0        0        0       12       20     6.621       83     26.5    1.754     0.43        2        9     2017  Essexvalley_GroundnutGDDCRO_Clay_S1_rainfed.PRM
  Tot(29)       31        5     2018    146.1    548.2   1684.2   408.21      0.0    145.5      0.6      0.0      0.0    163.4       54    193.5    193.8       70     0.000     0.000     0.000     0.000       90        0        0        0        0       40       24     5.404       67     26.5    1.432     0.40        3        9     2018  Essexvalley_GroundnutGDDCRO_Clay_S1_rainfed.PRM
