AquaCrop 6.0 (March 2017) - Output created on (date) : 3/5/2021   at (time) : 3:59:28 PM

    RunNr     Day1   Month1    Year1     Rain      ETo       GD     CO2      Irri   Infilt   Runoff    Drain   Upflow        E     E/Ex       Tr      TrW   Tr/Trx    SaltIn   SaltOut    SaltUp  SaltProf     Cycle   SaltStr  FertStr  WeedStr  TempStr   ExpStr   StoStr  BioMass  Brelative   HI     Yield     WPet     DayN   MonthN    YearN
                                           mm       mm    °C.day    ppm        mm       mm       mm       mm       mm       mm        %       mm       mm        %    ton/ha    ton/ha    ton/ha    ton/ha      days       %        %        %        %        %        %    ton/ha        %       %    ton/ha    kg/m3
   Tot(1)        1       10     1990    343.3    477.9   1301.2   355.00      0.0    304.9     38.4    173.1      0.0     89.5       60    146.7    146.7       40     0.000     0.000     0.000     0.000       99        0        0        0        0        1       50     5.984       38     56.5    3.382     1.44       13        1     1991  Essexvalley_SweetPotatoGDDCRO_Clay_S2_rainfed.PRM
   Tot(2)        1       10     1991    186.5    510.5   1301.4   356.03      0.0    178.5      8.0      1.9      0.0    108.4       69    294.3    294.3       76     0.000     0.000     0.000     0.000      101        0        0        0        0        8       21    12.012       75     45.8    5.506     1.37       15        1     1992  Essexvalley_SweetPotatoGDDCRO_Clay_S2_rainfed.PRM
   Tot(3)        1       10     1992     80.8    518.5   1300.6   356.27      0.0     80.8      0.0      0.4      0.0     93.4       49    201.6    201.6       57     0.000     0.000     0.000     0.000       96        0        0        0        0       63       36     7.770       51     39.7    3.084     1.05       10        1     1993  Essexvalley_SweetPotatoGDDCRO_Clay_S2_rainfed.PRM
   Tot(4)        1       10     1993    197.7    508.3   1303.0   357.47      0.0    192.6      5.1      7.5      0.0    109.6       68    292.6    292.6       76     0.000     0.000     0.000     0.000       99        0        0        0        0       30       19    12.040       76     47.3    5.689     1.42       13        1     1994  Essexvalley_SweetPotatoGDDCRO_Clay_S2_rainfed.PRM
   Tot(5)        1       10     1994    216.2    508.8   1295.3   359.82      0.0    200.8     15.4      0.0      0.0    103.9       66    315.2    315.2       81     0.000     0.000     0.000     0.000       98        0        0        0        0        4       15    12.909       82     49.1    6.337     1.52       12        1     1995  Essexvalley_SweetPotatoGDDCRO_Clay_S2_rainfed.PRM
   Tot(6)        1       10     1995    250.8    492.8   1300.4   361.72      0.0    228.3     22.5     67.8      0.0    127.2       79    249.7    249.7       68     0.000     0.000     0.000     0.000       96        0        0        0        0       57       32    10.164       65     45.7    4.644     1.24       11        1     1996  Essexvalley_SweetPotatoGDDCRO_Clay_S2_rainfed.PRM
   Tot(7)        1       10     1996    268.9    514.0   1299.9   363.17      0.0    241.0     27.9      3.5      0.0    121.8       84    336.1    336.1       83     0.000     0.000     0.000     0.000      102        0        0        0        0        8       17    13.865       84     48.9    6.781     1.48       16        1     1997  Essexvalley_SweetPotatoGDDCRO_Clay_S2_rainfed.PRM
   Tot(8)        1       10     1997    267.6    493.2   1296.7   365.22      0.0    244.7     22.9     54.8      0.0    117.6       77    287.9    287.9       77     0.000     0.000     0.000     0.000       96        0        0        0        0       10       25    11.928       76     47.1    5.612     1.39       11        1     1998  Essexvalley_SweetPotatoGDDCRO_Clay_S2_rainfed.PRM
   Tot(9)        1       10     1998    423.0    474.5   1300.0   367.54      0.0    333.7     89.3    159.7      0.0    111.5       78     74.5     74.5       20     0.000     0.000     0.000     0.000       98        0        0        0        0        1       67     3.227       20     53.8    1.737     0.94       12        1     1999  Essexvalley_SweetPotatoGDDCRO_Clay_S2_rainfed.PRM
  Tot(10)        1       10     1999    511.5    512.1   1301.2   368.97      0.0    403.4    108.1    212.6      0.0    129.6       95    241.2    241.2       59     0.000     0.000     0.000     0.000      108        0        0        0        0        0       45    10.351       58     49.9    5.167     1.40       22        1     2000  Essexvalley_SweetPotatoGDDCRO_Clay_S2_rainfed.PRM
  Tot(11)        1       10     2000    461.5    495.6   1298.6   370.35      0.0    366.7     94.8     11.3      0.0     96.5       60    357.3    357.3       96     0.000     0.000     0.000     0.000      101        0        0        0        0       28        3    16.181       96     54.3    8.783     1.94       16        1     2001  Essexvalley_SweetPotatoGDDCRO_Clay_S2_rainfed.PRM
  Tot(12)        1       10     2001    507.6    474.8   1300.2   372.21      0.0    416.9     90.7    180.5      0.0    120.0       82    110.4    110.4       30     0.000     0.000     0.000     0.000      100        0        0        0        0        0       58     5.027       30     53.8    2.706     1.19       14        1     2002  Essexvalley_SweetPotatoGDDCRO_Clay_S2_rainfed.PRM
  Tot(13)        1       10     2002    231.9    483.9   1294.9   374.54      0.0    217.8     14.1     24.4      0.0    116.7       76    276.3    276.3       76     0.000     0.000     0.000     0.000       96        0        0        0        0       55       23    11.824       74     47.6    5.623     1.44       10        1     2003  Essexvalley_SweetPotatoGDDCRO_Clay_S2_rainfed.PRM
  Tot(14)        1       10     2003    328.1    494.5   1300.3   376.66      0.0    312.6     15.5      8.6      0.0    112.5       79    378.6    378.6       98     0.000     0.000     0.000     0.000       96        0        0        0        0        1        2    15.909       99     53.4    8.490     1.73       10        1     2004  Essexvalley_SweetPotatoGDDCRO_Clay_S2_rainfed.PRM
  Tot(15)        1       10     2004    153.6    540.4   1303.2   378.66      0.0    152.0      1.6      5.4      0.0     88.8       51    269.7    269.7       67     0.000     0.000     0.000     0.000       97        0        0        0        0       55       27    10.586       64     43.7    4.628     1.30       11        1     2005  Essexvalley_SweetPotatoGDDCRO_Clay_S2_rainfed.PRM
  Tot(16)        1       10     2005    746.8    451.8   1301.8   380.85      0.0    548.4    198.4    306.7      0.0    119.0       99    125.8    125.8       35     0.000     0.000     0.000     0.000      100        0        0        0        0        0       66     6.031       36     55.0    3.317     1.37       15        1     2006  Essexvalley_SweetPotatoGDDCRO_Clay_S2_rainfed.PRM
  Tot(17)        1       10     2006    263.9    483.4   1303.0   382.85      0.0    248.2     15.7      2.7      0.0     91.1       60    344.4    344.4       94     0.000     0.000     0.000     0.000       93        0        0        0        0        1        5    15.029       94     53.4    8.029     1.85        7        1     2007  Essexvalley_SweetPotatoGDDCRO_Clay_S2_rainfed.PRM
  Tot(18)        1       10     2007    574.1    468.2   1302.7   384.70      0.0    433.7    140.4    259.5      0.0    120.0       96    172.4    172.4       46     0.000     0.000     0.000     0.000      101        0        0        0        0        0       55     7.860       45     55.0    4.323     1.48       16        1     2008  Essexvalley_SweetPotatoGDDCRO_Clay_S2_rainfed.PRM
  Tot(19)        1       10     2008    325.1    486.5   1305.4   386.51      0.0    280.0     45.1     94.1      0.0    120.3       87    196.5    196.5       52     0.000     0.000     0.000     0.000      101        0        0        0        0        0       41     8.793       50     56.6    4.973     1.58       15        1     2009  Essexvalley_SweetPotatoGDDCRO_Clay_S2_rainfed.PRM
  Tot(20)        1       10     2009    248.9    480.2   1301.9   388.66      0.0    234.0     14.9      0.7      0.0    121.8       83    309.3    309.3       84     0.000     0.000     0.000     0.000       95        0        0        0        0        1       15    13.999       85     54.9    7.679     1.79        9        1     2010  Essexvalley_SweetPotatoGDDCRO_Clay_S2_rainfed.PRM
  Tot(21)        1       10     2010    327.1    498.5   1299.7   390.77      0.0    295.6     31.5     73.8      0.0    126.8       93    270.6    270.6       69     0.000     0.000     0.000     0.000      106        0        0        0        0        0       33    13.000       69     53.4    6.940     1.75       21        1     2011  Essexvalley_SweetPotatoGDDCRO_Clay_S2_rainfed.PRM
  Tot(22)        1       10     2011    244.9    496.3   1294.8   392.75      0.0    231.7     13.2     47.8      0.0    133.9       96    250.5    250.5       64     0.000     0.000     0.000     0.000       97        0        0        0        0        0       38    10.755       64     48.9    5.257     1.37       11        1     2012  Essexvalley_SweetPotatoGDDCRO_Clay_S2_rainfed.PRM
  Tot(23)        1       10     2012    261.2    493.6   1296.6   395.19      0.0    225.3     35.9     33.2      0.0    107.4       75    289.8    289.8       76     0.000     0.000     0.000     0.000       98        0        0        0        0        0       22    13.136       77     51.9    6.815     1.72       12        1     2013  Essexvalley_SweetPotatoGDDCRO_Clay_S2_rainfed.PRM
  Tot(24)        1       10     2013    186.1    474.9   1300.2   397.58      0.0    183.9      2.2      5.2      0.0     96.7       69    298.9    298.9       82     0.000     0.000     0.000     0.000       94        0        0        0        0        1       15    13.589       83     48.9    6.641     1.68        8        1     2014  Essexvalley_SweetPotatoGDDCRO_Clay_S2_rainfed.PRM
  Tot(25)        1       10     2014    264.0    479.6   1298.5   399.74      0.0    256.6      7.4      0.0      0.0    101.8       67    347.0    347.0       96     0.000     0.000     0.000     0.000       96        0        0        0        0        2        3    16.382       97     55.6    9.112     2.03       10        1     2015  Essexvalley_SweetPotatoGDDCRO_Clay_S2_rainfed.PRM
  Tot(26)        1       10     2015    253.0    457.8   1296.7   402.52      0.0    251.7      1.3      2.4      0.0    115.6       84    333.4    333.4       95     0.000     0.000     0.000     0.000       93        0        0        0        0        1        5    15.858       96     52.9    8.383     1.87        7        1     2016  Essexvalley_SweetPotatoGDDCRO_Clay_S2_rainfed.PRM
  Tot(27)        1       10     2016    312.8    451.0   1299.7   405.21      0.0    279.9     32.9    107.9      0.0    122.2       93    107.2    107.2       31     0.000     0.000     0.000     0.000       95        0        0        0        0        0       61     5.102       30     53.8    2.745     1.20        9        1     2017  Essexvalley_SweetPotatoGDDCRO_Clay_S2_rainfed.PRM
  Tot(28)        1       10     2017    562.0    423.3   1294.3   407.21      0.0    461.5    100.5    247.5      0.0    120.9       94     78.3     78.3       24     0.000     0.000     0.000     0.000       98        0        0        0        0        0       68     4.046       23     53.8    2.177     1.09       11        1     2018  Essexvalley_SweetPotatoGDDCRO_Clay_S2_rainfed.PRM
  Tot(29)        1       10     2018    186.4    477.5   1302.6   409.21      0.0    162.1     24.3     49.7      0.0    121.4       76    209.0    209.0       61     0.000     0.000     0.000     0.000       96        0        0        0        0       59       38     9.794       57     41.6    4.079     1.24       11        1     2019  Essexvalley_SweetPotatoGDDCRO_Clay_S2_rainfed.PRM
