AquaCrop 6.0 (March 2017) - Output created on (date) : 3/5/2021   at (time) : 3:52:00 PM

    RunNr     Day1   Month1    Year1     Rain      ETo       GD     CO2      Irri   Infilt   Runoff    Drain   Upflow        E     E/Ex       Tr      TrW   Tr/Trx    SaltIn   SaltOut    SaltUp  SaltProf     Cycle   SaltStr  FertStr  WeedStr  TempStr   ExpStr   StoStr  BioMass  Brelative   HI     Yield     WPet     DayN   MonthN    YearN
                                           mm       mm    °C.day    ppm        mm       mm       mm       mm       mm       mm        %       mm       mm        %    ton/ha    ton/ha    ton/ha    ton/ha      days       %        %        %        %        %        %    ton/ha        %       %    ton/ha    kg/m3
   Tot(1)       31        5     1990    184.7    581.8   1666.0   354.39    359.0    171.2     13.5      5.9      0.0    256.1       81    307.2    302.7      100     0.000     0.000     0.000     0.000       89        0        0        0        0        0        0     7.097      100     25.0    1.774     0.32        2        9     1990  Essexvalley_GroundnutGDDCRO_ClayLoam_S1_riegoIRR.PRM
   Tot(2)       31        5     1991    111.3    574.3   1677.8   355.61    417.9    109.7      1.6      0.0      0.0    265.7       85    301.1    301.4      100     0.000     0.000     0.000     0.000       90        0        0        0        0        0        0     7.207      100     25.0    1.802     0.32        3        9     1991  Essexvalley_GroundnutGDDCRO_ClayLoam_S1_riegoIRR.PRM
   Tot(3)       31        5     1992    127.4    583.3   1671.7   356.45    416.5    123.7      3.7      0.0      0.0    268.5       85    309.7    308.5      100     0.000     0.000     0.000     0.000       89        0        0        0        0        0        0     7.148      100     25.0    1.787     0.31        2        9     1992  Essexvalley_GroundnutGDDCRO_ClayLoam_S1_riegoIRR.PRM
   Tot(4)       31        5     1993    175.4    579.5   1697.2   356.10    391.8    169.5      5.9      9.3      0.0    279.4       91    311.4    312.4      100     0.000     0.000     0.000     0.000       91        0        0        0        0        0        0     7.330      100     25.0    1.833     0.31        4        9     1993  Essexvalley_GroundnutGDDCRO_ClayLoam_S1_riegoIRR.PRM
   Tot(5)       31        5     1994    112.2    629.7   1674.6   358.83    453.9    111.4      0.8      0.0      0.0    280.3       80    323.4    322.9      100     0.000     0.000     0.000     0.000       89        0        0        0        0        0        0     7.196      100     25.0    1.799     0.30        2        9     1994  Essexvalley_GroundnutGDDCRO_ClayLoam_S1_riegoIRR.PRM
   Tot(6)       31        5     1995    252.9    562.4   1663.2   360.82    292.8    244.1      8.8      1.9      0.0    283.4       91    290.2    290.3      100     0.000     0.000     0.000     0.000       88        0        0        0        0        0        0     7.138      100     25.0    1.785     0.31        1        9     1995  Essexvalley_GroundnutGDDCRO_ClayLoam_S1_riegoIRR.PRM
   Tot(7)       31        5     1996    178.6    580.8   1668.7   362.61    356.3    176.1      2.5      0.0      0.0    276.3       84    294.9    295.0      100     0.000     0.000     0.000     0.000       89        0        0        0        0        0        0     7.263      100     25.0    1.816     0.32        2        9     1996  Essexvalley_GroundnutGDDCRO_ClayLoam_S1_riegoIRR.PRM
   Tot(8)       31        5     1997    230.4    551.6   1699.7   363.73    332.1    211.1     19.3     27.4      0.0    261.1       89    295.2    297.0      100     0.000     0.000     0.000     0.000       91        0        0        0        0        0        0     7.463      100     25.0    1.866     0.34        4        9     1997  Essexvalley_GroundnutGDDCRO_ClayLoam_S1_riegoIRR.PRM
   Tot(9)       31        5     1998    250.1    560.8   1644.9   366.70    292.9    224.2     25.9      0.0      0.0    266.4       84    284.2    282.4      100     0.000     0.000     0.000     0.000       87        0        0        0        0        0        0     7.076      100     25.0    1.769     0.32       30        8     1998  Essexvalley_GroundnutGDDCRO_ClayLoam_S1_riegoIRR.PRM
  Tot(10)       31        5     1999    307.8    562.1   1683.4   368.38    247.4    288.6     19.2      3.3      0.0    278.5       90    292.8    292.7      100     0.000     0.000     0.000     0.000       90        0        0        0        0        0        0     7.465      100     25.0    1.866     0.33        3        9     1999  Essexvalley_GroundnutGDDCRO_ClayLoam_S1_riegoIRR.PRM
  Tot(11)       31        5     2000    294.7    578.0   1694.8   369.55    305.1    260.3     34.4      8.0      0.0    282.9       90    302.3    303.2      100     0.000     0.000     0.000     0.000       91        0        0        0        0        0        0     7.598      100     25.0    1.899     0.32        4        9     2000  Essexvalley_GroundnutGDDCRO_ClayLoam_S1_riegoIRR.PRM
  Tot(12)       31        5     2001    132.9    583.9   1652.8   371.14    399.1    129.7      3.2      0.0      0.0    271.3       82    296.0    294.9      100     0.000     0.000     0.000     0.000       88        0        0        0        0        0        0     7.265      100     25.0    1.816     0.32        1        9     2001  Essexvalley_GroundnutGDDCRO_ClayLoam_S1_riegoIRR.PRM
  Tot(13)       31        5     2002    247.7    553.0   1690.9   373.28    336.1    217.4     30.3     42.7      0.0    254.0       86    295.6    296.1      100     0.000     0.000     0.000     0.000       91        0        0        0        0        0        0     7.593      100     25.0    1.898     0.35        4        9     2002  Essexvalley_GroundnutGDDCRO_ClayLoam_S1_riegoIRR.PRM
  Tot(14)       31        5     2003    300.4    565.3   1670.7   375.80    259.8    272.8     27.6      0.0      0.0    276.4       88    291.7    291.5      100     0.000     0.000     0.000     0.000       89        0        0        0        0        0        0     7.491      100     25.0    1.873     0.33        2        9     2003  Essexvalley_GroundnutGDDCRO_ClayLoam_S1_riegoIRR.PRM
  Tot(15)       31        5     2004    170.1    586.3   1659.0   377.52    371.8    160.8      9.3      0.0      0.0    271.0       83    300.4    300.3      100     0.000     0.000     0.000     0.000       88        0        0        0        0        0        0     7.414      100     25.0    1.854     0.32        1        9     2004  Essexvalley_GroundnutGDDCRO_ClayLoam_S1_riegoIRR.PRM
  Tot(16)       31        5     2005    605.5    501.0   1687.5   379.80    143.0    445.9    159.6    109.6      0.0    252.5       94    265.5    265.8      100     0.000     0.000     0.000     0.000       90        0        0        0        0        0        0     7.597      100     25.0    1.899     0.37        2        9     2005  Essexvalley_GroundnutGDDCRO_ClayLoam_S1_riegoIRR.PRM
  Tot(17)       31        5     2006    347.9    545.0   1677.5   381.90    257.5    305.2     42.7     51.9      0.0    261.8       89    288.4    288.8      100     0.000     0.000     0.000     0.000       89        0        0        0        0        0        0     7.611      100     25.0    1.903     0.35        2        9     2006  Essexvalley_GroundnutGDDCRO_ClayLoam_S1_riegoIRR.PRM
  Tot(18)       31        5     2007    256.4    551.0   1676.2   383.79    279.8    231.7     24.7      0.0      0.0    266.6       87    283.3    282.4      100     0.000     0.000     0.000     0.000       90        0        0        0        0        0        0     7.643      100     25.0    1.911     0.35        2        9     2007  Essexvalley_GroundnutGDDCRO_ClayLoam_S1_riegoIRR.PRM
  Tot(19)       31        5     2008    423.7    540.8   1670.5   385.60    247.9    303.0    120.7      4.8      0.0    265.8       89    278.6    280.6      100     0.000     0.000     0.000     0.000       89        0        0        0        0        0        0     7.637      100     25.0    1.909     0.35        2        9     2008  Essexvalley_GroundnutGDDCRO_ClayLoam_S1_riegoIRR.PRM
  Tot(20)       31        5     2009    234.8    552.0   1686.5   387.43    303.8    218.1     16.7      0.0      0.0    263.7       90    296.8    295.1      100     0.000     0.000     0.000     0.000       90        0        0        0        0        0        0     7.757      100     25.0    1.939     0.35        3        9     2009  Essexvalley_GroundnutGDDCRO_ClayLoam_S1_riegoIRR.PRM
  Tot(21)       31        5     2010    506.9    500.0   1670.7   389.90     71.1    447.5     59.4     45.4      0.0    255.7       92    256.4    256.7      100     0.000     0.000     0.000     0.000       89        0        0        0        0        0        0     7.667      100     25.0    1.917     0.37        1        9     2010  Essexvalley_GroundnutGDDCRO_ClayLoam_S1_riegoIRR.PRM
  Tot(22)       31        5     2011    523.5    514.8   1689.9   391.65    139.9    430.5     93.0     77.9      0.0    255.5       93    273.9    274.2      100     0.000     0.000     0.000     0.000       90        0        0        0        0        0        0     7.844      100     25.0    1.961     0.37        3        9     2011  Essexvalley_GroundnutGDDCRO_ClayLoam_S1_riegoIRR.PRM
  Tot(23)       31        5     2012    345.6    550.4   1672.9   393.85    212.8    291.0     54.6      8.1      0.0    253.4       83    280.9    280.3      100     0.000     0.000     0.000     0.000       89        0        0        0        0        0        0     7.788      100     25.0    1.947     0.36        2        9     2012  Essexvalley_GroundnutGDDCRO_ClayLoam_S1_riegoIRR.PRM
  Tot(24)       31        5     2013    283.8    532.9   1669.5   396.52    244.4    267.2     16.6      0.9      0.0    268.3       92    277.4    278.0      100     0.000     0.000     0.000     0.000       90        0        0        0        0        0        0     7.830      100     25.0    1.957     0.36        2        9     2013  Essexvalley_GroundnutGDDCRO_ClayLoam_S1_riegoIRR.PRM
  Tot(25)       31        5     2014    215.7    548.1   1670.9   398.65    329.4    197.7     18.0      0.0      0.0    265.1       89    285.2    284.8      100     0.000     0.000     0.000     0.000       89        0        0        0        0        0        0     7.840      100     25.0    1.960     0.36        2        9     2014  Essexvalley_GroundnutGDDCRO_ClayLoam_S1_riegoIRR.PRM
  Tot(26)       31        5     2015    200.0    547.2   1670.8   400.83    351.4    180.3     19.7     20.1      0.0    260.7       89    289.9    290.0      100     0.000     0.000     0.000     0.000       89        0        0        0        0        0        0     7.878      100     25.0    1.970     0.36        2        9     2015  Essexvalley_GroundnutGDDCRO_ClayLoam_S1_riegoIRR.PRM
  Tot(27)       31        5     2016    302.8    528.6   1652.5   404.21    261.7    268.5     34.3     18.1      0.0    263.9       90    271.8    272.1      100     0.000     0.000     0.000     0.000       88        0        0        0        0        0        0     7.732      100     25.0    1.933     0.36       31        8     2016  Essexvalley_GroundnutGDDCRO_ClayLoam_S1_riegoIRR.PRM
  Tot(28)       31        5     2017    297.3    525.7   1679.6   406.21    283.2    209.5     87.8     24.6      0.0    232.7       82    274.2    273.7      100     0.000     0.000     0.000     0.000       89        0        0        0        0        0        0     7.966      100     25.0    1.992     0.39        2        9     2017  Essexvalley_GroundnutGDDCRO_ClayLoam_S1_riegoIRR.PRM
  Tot(29)       31        5     2018    146.1    548.2   1684.2   408.21    364.2    141.4      4.7      0.0      0.0    252.6       87    292.0    292.3      100     0.000     0.000     0.000     0.000       90        0        0        0        0        0        0     8.079      100     25.0    2.020     0.37        3        9     2018  Essexvalley_GroundnutGDDCRO_ClayLoam_S1_riegoIRR.PRM
