AquaCrop 6.0 (March 2017) - Output created on (date) : 3/5/2021   at (time) : 3:50:46 PM

    RunNr     Day1   Month1    Year1     Rain      ETo       GD     CO2      Irri   Infilt   Runoff    Drain   Upflow        E     E/Ex       Tr      TrW   Tr/Trx    SaltIn   SaltOut    SaltUp  SaltProf     Cycle   SaltStr  FertStr  WeedStr  TempStr   ExpStr   StoStr  BioMass  Brelative   HI     Yield     WPet     DayN   MonthN    YearN
                                           mm       mm    °C.day    ppm        mm       mm       mm       mm       mm       mm        %       mm       mm        %    ton/ha    ton/ha    ton/ha    ton/ha      days       %        %        %        %        %        %    ton/ha        %       %    ton/ha    kg/m3
   Tot(1)       31       10     1990    265.6    486.6   1729.6   355.00      0.0    247.6     18.0     69.7      0.0    192.5       79    183.4    183.0       67     0.000     0.000     0.000     0.000       98        0        0        0        0        0       43     5.287       66     26.5    1.401     0.37       11        2     1991  Essexvalley_GroundnutGDDCRO_Clay_S2_rainfed.PRM
   Tot(2)       31       10     1991    136.4    492.3   1722.4   356.03      0.0    127.1      9.3     15.4      0.0    132.4       50    189.9    189.6       74     0.000     0.000     0.000     0.000       98        0        0        0        0        9       25     5.893       73     26.5    1.562     0.48       11        2     1992  Essexvalley_GroundnutGDDCRO_Clay_S2_rainfed.PRM
   Tot(3)       31       10     1992    100.3    512.1   1714.9   356.27      0.0    100.2      0.1      0.0      0.0     95.3       34    211.8    209.0       79     0.000     0.000     0.000     0.000       97        0        0        0        0       39       14     6.176       78     26.5    1.637     0.53        9        2     1993  Essexvalley_GroundnutGDDCRO_Clay_S2_rainfed.PRM
   Tot(4)       31       10     1993    152.3    500.4   1724.3   357.47      0.0    150.6      1.7      0.7      0.0    145.4       54    221.0    224.0       83     0.000     0.000     0.000     0.000       97        0        0        0        0        0       17     6.771       85     26.5    1.794     0.49       10        2     1994  Essexvalley_GroundnutGDDCRO_Clay_S2_rainfed.PRM
   Tot(5)       31       10     1994    179.2    498.1   1718.8   359.82      0.0    156.6     22.6     38.8      0.0    144.7       54    184.8    185.1       71     0.000     0.000     0.000     0.000       97        0        0        0        0       38       31     5.536       69     26.5    1.467     0.45       10        2     1995  Essexvalley_GroundnutGDDCRO_Clay_S2_rainfed.PRM
   Tot(6)       31       10     1995    111.7    508.0   1716.9   361.72      0.0    111.7      0.0      0.0      0.0    132.7       49    198.7    198.5       75     0.000     0.000     0.000     0.000       96        0        0        0        0        7       19     5.944       74     26.5    1.575     0.48        9        2     1996  Essexvalley_GroundnutGDDCRO_Clay_S2_rainfed.PRM
   Tot(7)       31       10     1996    197.5    509.7   1731.9   363.17      0.0    175.9     21.6     48.5      0.0    152.2       57    184.3    184.6       69     0.000     0.000     0.000     0.000      100        0        0        0        0       38       35     5.453       66     26.5    1.445     0.43       12        2     1997  Essexvalley_GroundnutGDDCRO_Clay_S2_rainfed.PRM
   Tot(8)       31       10     1997    164.1    488.5   1720.2   365.22      0.0    163.7      0.4      0.0      0.0    147.2       57    228.5    228.1       88     0.000     0.000     0.000     0.000       97        0        0        0        0        3       11     7.128       88     26.5    1.889     0.50        9        2     1998  Essexvalley_GroundnutGDDCRO_Clay_S2_rainfed.PRM
   Tot(9)       31       10     1998    258.7    490.3   1742.8   367.54      0.0    238.6     20.1     20.3      0.0    181.1       70    218.3    218.8       84     0.000     0.000     0.000     0.000       97        0        0        0        0        0       20     6.806       83     26.5    1.804     0.45       11        2     1999  Essexvalley_GroundnutGDDCRO_Clay_S2_rainfed.PRM
  Tot(10)       31       10     1999    233.7    507.4   1743.9   368.97      0.0    207.5     26.2     62.7      0.0    161.1       61    192.1    192.1       71     0.000     0.000     0.000     0.000      104        0        0        0        0        7       31     6.148       70     26.5    1.629     0.46       17        2     2000  Essexvalley_GroundnutGDDCRO_Clay_S2_rainfed.PRM
  Tot(11)       31       10     2000    404.8    478.6   1727.5   370.35      0.0    324.5     80.3    132.7      0.0    155.9       60     83.4     80.2       33     0.000     0.000     0.000     0.000      100        0        0        0        0        0       54     2.693       31     25.0    0.673     0.28       13        2     2001  Essexvalley_GroundnutGDDCRO_Clay_S2_rainfed.PRM
  Tot(12)       31       10     2001    346.4    467.8   1733.1   372.21      0.0    303.1     43.3     66.2      0.0    171.3       69    244.9    244.4       98     0.000     0.000     0.000     0.000       98        0        0        0        0        0       12     8.145       98     26.5    2.158     0.52       11        2     2002  Essexvalley_GroundnutGDDCRO_Clay_S2_rainfed.PRM
  Tot(13)       31       10     2002    204.8    482.3   1728.2   374.54      0.0    195.4      9.4      0.0      0.0    133.9       52    252.2    252.8       99     0.000     0.000     0.000     0.000       96        0        0        0        0        2        2     8.181       99     26.5    2.168     0.56        9        2     2003  Essexvalley_GroundnutGDDCRO_Clay_S2_rainfed.PRM
  Tot(14)       31       10     2003    248.1    503.3   1710.3   376.66      0.0    236.1     12.0     23.3      0.0    192.6       72    181.0    179.9       67     0.000     0.000     0.000     0.000       96        0        0        0        0        0       33     5.518       66     26.4    1.457     0.39        9        2     2004  Essexvalley_GroundnutGDDCRO_Clay_S2_rainfed.PRM
  Tot(15)       31       10     2004    139.2    543.3   1719.9   378.66      0.0    138.7      0.5      0.5      0.0    121.7       41    235.6    239.2       84     0.000     0.000     0.000     0.000      100        0        0        0        0        0       10     7.444       86     26.5    1.973     0.55       12        2     2005  Essexvalley_GroundnutGDDCRO_Clay_S2_rainfed.PRM
  Tot(16)       31       10     2005    288.7    472.4   1727.9   380.85      0.0    280.7      8.0     13.2      0.0    183.7       72    239.1    236.4       96     0.000     0.000     0.000     0.000       99        0        0        0        0        0       12     8.251       96     25.6    2.111     0.50       11        2     2006  Essexvalley_GroundnutGDDCRO_Clay_S2_rainfed.PRM
  Tot(17)       31       10     2006    185.6    487.8   1695.5   382.85      0.0    173.4     12.2     33.1      0.0    162.2       63    189.8    192.9       74     0.000     0.000     0.000     0.000       94        0        0        0        0        7       29     5.831       72     26.5    1.545     0.44        6        2     2007  Essexvalley_GroundnutGDDCRO_Clay_S2_rainfed.PRM
  Tot(18)       31       10     2007    278.9    486.4   1746.7   384.70      0.0    227.5     51.4     81.9      0.0    160.2       63    199.7    200.0       77     0.000     0.000     0.000     0.000       98        0        0        0        0        0       27     6.728       78     26.5    1.783     0.50       12        2     2008  Essexvalley_GroundnutGDDCRO_Clay_S2_rainfed.PRM
  Tot(19)       31       10     2008    224.2    494.0   1747.8   386.51      0.0    193.3     30.9     70.1      0.0    148.1       58    191.2    191.2       73     0.000     0.000     0.000     0.000       99        0        0        0        0       10       28     6.337       73     26.5    1.679     0.50       13        2     2009  Essexvalley_GroundnutGDDCRO_Clay_S2_rainfed.PRM
  Tot(20)       31       10     2009    158.8    477.5   1711.3   388.66      0.0    151.4      7.4      0.0      0.0    121.2       47    236.1    234.5       95     0.000     0.000     0.000     0.000       96        0        0        0        0        0        7     8.056       95     26.5    2.135     0.60        9        2     2010  Essexvalley_GroundnutGDDCRO_Clay_S2_rainfed.PRM
  Tot(21)       31       10     2010    151.0    489.7   1743.9   390.77      0.0    146.9      4.1     12.7      0.0    142.0       54    210.9    212.5       82     0.000     0.000     0.000     0.000      103        0        0        0        0        0       17     7.602       84     26.5    2.014     0.58       16        2     2011  Essexvalley_GroundnutGDDCRO_Clay_S2_rainfed.PRM
  Tot(22)       31       10     2011     80.8    501.8   1714.0   392.75      0.0     79.8      1.0      5.3      0.0    103.2       38    191.2    190.8       75     0.000     0.000     0.000     0.000       97        0        0        0        0       10       18     6.297       74     26.5    1.669     0.57        9        2     2012  Essexvalley_GroundnutGDDCRO_Clay_S2_rainfed.PRM
  Tot(23)       31       10     2012    108.0    489.5   1715.4   395.19      0.0    105.4      2.6      7.3      0.0    125.0       48    192.9    192.9       75     0.000     0.000     0.000     0.000       96        0        0        0        0        5       21     6.337       74     26.5    1.679     0.53        9        2     2013  Essexvalley_GroundnutGDDCRO_Clay_S2_rainfed.PRM
  Tot(24)       31       10     2013    158.1    472.8   1707.3   397.58      0.0    152.0      6.1     13.6      0.0    134.6       53    219.6    219.1       88     0.000     0.000     0.000     0.000       95        0        0        0        0        1       11     7.428       88     26.5    1.969     0.56        7        2     2014  Essexvalley_GroundnutGDDCRO_Clay_S2_rainfed.PRM
  Tot(25)       31       10     2014    199.4    466.1   1723.3   399.74      0.0    189.9      9.5     13.9      0.0    161.0       64    188.5    186.3       77     0.000     0.000     0.000     0.000       96        0        0        0        0        0       20     6.593       76     25.8    1.704     0.49        9        2     2015  Essexvalley_GroundnutGDDCRO_Clay_S2_rainfed.PRM
  Tot(26)       31       10     2015    185.4    454.8   1711.2   402.52      0.0    180.8      4.6     12.3      0.0    180.3       74    202.6    205.1       84     0.000     0.000     0.000     0.000       95        0        0        0        0        0       20     7.253       85     26.5    1.922     0.50        7        2     2016  Essexvalley_GroundnutGDDCRO_Clay_S2_rainfed.PRM
  Tot(27)       31       10     2016    163.7    472.3   1725.3   405.21      0.0    158.4      5.3     13.8      0.0    167.0       68    192.4    192.5       76     0.000     0.000     0.000     0.000       97        0        0        0        0        0       29     6.599       75     26.5    1.749     0.49        9        2     2017  Essexvalley_GroundnutGDDCRO_Clay_S2_rainfed.PRM
  Tot(28)       31       10     2017    403.3    417.6   1732.9   407.21      0.0    352.5     50.8    107.8      0.0    191.1       88     86.6     84.7       39     0.000     0.000     0.000     0.000       98        0        0        0        0        0       60     3.358       38     25.0    0.839     0.30       10        2     2018  Essexvalley_GroundnutGDDCRO_Clay_S2_rainfed.PRM
  Tot(29)       31       10     2018     63.0    470.4   1708.0   409.21      0.0     63.0      0.0      0.9      0.0     81.3       32    196.6    198.1       80     0.000     0.000     0.000     0.000       95        0        0        0        0        3       14     6.931       79     26.5    1.837     0.66        8        2     2019  Essexvalley_GroundnutGDDCRO_Clay_S2_rainfed.PRM
