AquaCrop 6.0 (March 2017) - Output created on (date) : 3/5/2021   at (time) : 4:03:33 PM

    RunNr     Day1   Month1    Year1     Rain      ETo       GD     CO2      Irri   Infilt   Runoff    Drain   Upflow        E     E/Ex       Tr      TrW   Tr/Trx    SaltIn   SaltOut    SaltUp  SaltProf     Cycle   SaltStr  FertStr  WeedStr  TempStr   ExpStr   StoStr  BioMass  Brelative   HI     Yield     WPet     DayN   MonthN    YearN
                                           mm       mm    °C.day    ppm        mm       mm       mm       mm       mm       mm        %       mm       mm        %    ton/ha    ton/ha    ton/ha    ton/ha      days       %        %        %        %        %        %    ton/ha        %       %    ton/ha    kg/m3
   Tot(1)        1       10     1990    343.3    477.9   1301.2   355.00    186.0    339.4      3.9     69.2      0.0    117.8       81    365.6    365.6      100     0.000     0.000     0.000     0.000       99        0        0        0        0        0        0    16.003      100     53.8    8.613     1.79       13        1     1991  Essexvalley_SweetPotatoGDDCRO_Loam_S2_riegoIRR.PRM
   Tot(2)        1       10     1991    186.5    510.5   1301.4   356.03    343.7    181.8      4.7     27.7      0.0    130.9       85    394.6    394.6      100     0.000     0.000     0.000     0.000      101        0        0        0        0        0        0    16.230      100     53.8    8.735     1.67       15        1     1992  Essexvalley_SweetPotatoGDDCRO_Loam_S2_riegoIRR.PRM
   Tot(3)        1       10     1992     80.8    518.5   1300.6   356.27    413.6     80.8      0.0      0.0      0.0    121.1       78    401.1    401.1      100     0.000     0.000     0.000     0.000       96        0        0        0        0        0        0    15.431      100     53.8    8.303     1.60       10        1     1993  Essexvalley_SweetPotatoGDDCRO_Loam_S2_riegoIRR.PRM
   Tot(4)        1       10     1993    197.7    508.3   1303.0   357.47    318.4    195.0      2.7     17.1      0.0    131.2       86    392.4    392.4      100     0.000     0.000     0.000     0.000       99        0        0        0        0        0        0    16.013      100     53.8    8.612     1.65       13        1     1994  Essexvalley_SweetPotatoGDDCRO_Loam_S2_riegoIRR.PRM
   Tot(5)        1       10     1994    216.2    508.8   1295.3   359.82    329.2    207.9      8.3     44.2      0.0    129.4       83    389.7    389.7      100     0.000     0.000     0.000     0.000       98        0        0        0        0        0        0    15.916      100     53.6    8.538     1.65       12        1     1995  Essexvalley_SweetPotatoGDDCRO_Loam_S2_riegoIRR.PRM
   Tot(6)        1       10     1995    250.8    492.8   1300.4   361.72    326.9    245.8      5.0     80.8      0.0    134.5       93    383.3    383.3      100     0.000     0.000     0.000     0.000       96        0        0        0        0        0        0    15.571      100     53.8    8.373     1.62       11        1     1996  Essexvalley_SweetPotatoGDDCRO_Loam_S2_riegoIRR.PRM
   Tot(7)        1       10     1996    268.9    514.0   1299.9   363.17    322.4    260.2      8.7     77.4      0.0    126.0       88    407.1    407.1      100     0.000     0.000     0.000     0.000      102        0        0        0        0        0        0    16.757      100     53.7    8.995     1.69       16        1     1997  Essexvalley_SweetPotatoGDDCRO_Loam_S2_riegoIRR.PRM
   Tot(8)        1       10     1997    267.6    493.2   1296.7   365.22    293.9    259.8      7.8     66.7      0.0    135.3       90    379.4    379.4      100     0.000     0.000     0.000     0.000       96        0        0        0        0        0        0    15.663      100     53.6    8.401     1.64       11        1     1998  Essexvalley_SweetPotatoGDDCRO_Loam_S2_riegoIRR.PRM
   Tot(9)        1       10     1998    423.0    474.5   1300.0   367.54    182.9    395.9     27.1    116.9      0.0    117.7       83    367.9    367.9      100     0.000     0.000     0.000     0.000       98        0        0        0        0        0        0    16.314      100     53.8    8.780     1.82       12        1     1999  Essexvalley_SweetPotatoGDDCRO_Loam_S2_riegoIRR.PRM
  Tot(10)        1       10     1999    511.5    512.1   1301.2   368.97    268.1    476.0     35.5    234.3      0.0    127.4       94    410.1    410.1      100     0.000     0.000     0.000     0.000      108        0        0        0        0        0        0    18.145      100     53.9    9.772     1.82       22        1     2000  Essexvalley_SweetPotatoGDDCRO_Loam_S2_riegoIRR.PRM
  Tot(11)        1       10     2000    461.5    495.6   1298.6   370.35    208.5    433.0     28.5    161.5      0.0    131.2       84    376.0    376.0      100     0.000     0.000     0.000     0.000      101        0        0        0        0        0        0    16.929      100     53.8    9.109     1.80       16        1     2001  Essexvalley_SweetPotatoGDDCRO_Loam_S2_riegoIRR.PRM
  Tot(12)        1       10     2001    507.6    474.8   1300.2   372.21    136.6    487.8     19.8    147.6      0.0    129.2       88    362.9    362.9      100     0.000     0.000     0.000     0.000      100        0        0        0        0        0        0    16.933      100     53.8    9.114     1.86       14        1     2002  Essexvalley_SweetPotatoGDDCRO_Loam_S2_riegoIRR.PRM
  Tot(13)        1       10     2002    231.9    483.9   1294.9   374.54    299.0    225.2      6.7     46.0      0.0    119.5       84    377.3    377.3      100     0.000     0.000     0.000     0.000       96        0        0        0        0        0        0    16.099      100     53.8    8.662     1.75       10        1     2003  Essexvalley_SweetPotatoGDDCRO_Loam_S2_riegoIRR.PRM
  Tot(14)        1       10     2003    328.1    494.5   1300.3   376.66    192.2    320.6      7.5     22.2      0.0    130.0       91    387.7    387.7      100     0.000     0.000     0.000     0.000       96        0        0        0        0        0        0    16.284      100     53.8    8.757     1.70       10        1     2004  Essexvalley_SweetPotatoGDDCRO_Loam_S2_riegoIRR.PRM
  Tot(15)        1       10     2004    153.6    540.4   1303.2   378.66    373.3    152.6      1.0      3.1      0.0    124.7       81    424.5    424.5      100     0.000     0.000     0.000     0.000       97        0        0        0        0        0        0    16.673      100     53.8    8.974     1.64       11        1     2005  Essexvalley_SweetPotatoGDDCRO_Loam_S2_riegoIRR.PRM
  Tot(16)        1       10     2005    746.8    451.8   1301.8   380.85    117.5    679.7     67.1    338.2      0.0    117.4       98    362.4    362.4      100     0.000     0.000     0.000     0.000      100        0        0        0        0        0        0    17.014      100     55.0    9.358     1.95       15        1     2006  Essexvalley_SweetPotatoGDDCRO_Loam_S2_riegoIRR.PRM
  Tot(17)        1       10     2006    263.9    483.4   1303.0   382.85    261.6    252.3     11.6     46.7      0.0    126.6       85    368.2    368.2      100     0.000     0.000     0.000     0.000       93        0        0        0        0        0        0    16.063      100     53.8    8.647     1.76        7        1     2007  Essexvalley_SweetPotatoGDDCRO_Loam_S2_riegoIRR.PRM
  Tot(18)        1       10     2007    574.1    468.2   1302.7   384.70    203.7    533.7     40.4    270.7      0.0    119.5       96    375.1    375.1      100     0.000     0.000     0.000     0.000      101        0        0        0        0        0        0    17.363      100     55.0    9.550     1.94       16        1     2008  Essexvalley_SweetPotatoGDDCRO_Loam_S2_riegoIRR.PRM
  Tot(19)        1       10     2008    325.1    486.5   1305.4   386.51    262.6    313.9     11.2     96.4      0.0    127.1       92    381.2    381.2      100     0.000     0.000     0.000     0.000      101        0        0        0        0        0        0    17.607      100     53.9    9.483     1.87       15        1     2009  Essexvalley_SweetPotatoGDDCRO_Loam_S2_riegoIRR.PRM
  Tot(20)        1       10     2009    248.9    480.2   1301.9   388.66    261.4    241.0      7.9     32.1      0.0    128.2       88    369.0    369.0      100     0.000     0.000     0.000     0.000       95        0        0        0        0        0        0    16.580      100     53.8    8.921     1.80        9        1     2010  Essexvalley_SweetPotatoGDDCRO_Loam_S2_riegoIRR.PRM
  Tot(21)        1       10     2010    327.1    498.5   1299.7   390.77    254.1    316.5     10.6     82.2      0.0    121.9       89    394.5    394.5      100     0.000     0.000     0.000     0.000      106        0        0        0        0        0        0    18.768      100     53.9   10.108     1.96       21        1     2011  Essexvalley_SweetPotatoGDDCRO_Loam_S2_riegoIRR.PRM
  Tot(22)        1       10     2011    244.9    496.3   1294.8   392.75    292.5    242.2      2.7     36.9      0.0    134.4       97    391.4    391.4      100     0.000     0.000     0.000     0.000       97        0        0        0        0        0        0    16.963      100     53.7    9.107     1.74       11        1     2012  Essexvalley_SweetPotatoGDDCRO_Loam_S2_riegoIRR.PRM
  Tot(23)        1       10     2012    261.2    493.6   1296.6   395.19    305.6    243.9     17.3     66.1      0.0    126.5       88    383.5    383.5      100     0.000     0.000     0.000     0.000       98        0        0        0        0        0        0    17.281      100     53.8    9.301     1.83       12        1     2013  Essexvalley_SweetPotatoGDDCRO_Loam_S2_riegoIRR.PRM
  Tot(24)        1       10     2013    186.1    474.9   1300.2   397.58    283.7    183.6      2.5      7.1      0.0    120.2       86    367.4    367.4      100     0.000     0.000     0.000     0.000       94        0        0        0        0        0        0    16.604      100     53.8    8.938     1.84        8        1     2014  Essexvalley_SweetPotatoGDDCRO_Loam_S2_riegoIRR.PRM
  Tot(25)        1       10     2014    264.0    479.6   1298.5   399.74    214.1    259.4      4.6     19.8      0.0    118.7       80    362.7    362.7      100     0.000     0.000     0.000     0.000       96        0        0        0        0        0        0    17.076      100     53.8    9.182     1.92       10        1     2015  Essexvalley_SweetPotatoGDDCRO_Loam_S2_riegoIRR.PRM
  Tot(26)        1       10     2015    253.0    457.8   1296.7   402.52    198.5    251.9      1.1      3.7      0.0    124.3       90    350.7    350.7      100     0.000     0.000     0.000     0.000       93        0        0        0        0        0        0    16.665      100     53.8    8.971     1.90        7        1     2016  Essexvalley_SweetPotatoGDDCRO_Loam_S2_riegoIRR.PRM
  Tot(27)        1       10     2016    312.8    451.0   1299.7   405.21    187.3    305.9      6.9     50.5      0.0    122.8       93    347.9    347.9      100     0.000     0.000     0.000     0.000       95        0        0        0        0        0        0    17.088      100     53.8    9.194     1.96        9        1     2017  Essexvalley_SweetPotatoGDDCRO_Loam_S2_riegoIRR.PRM
  Tot(28)        1       10     2017    562.0    423.3   1294.3   407.21     91.7    537.3     24.7    181.7      0.0    121.1       94    324.6    320.7      100     0.000     0.000     0.000     0.000       98        0        0        0        0        0        0    17.802      100     53.8    9.581     2.15       11        1     2018  Essexvalley_SweetPotatoGDDCRO_Loam_S2_riegoIRR.PRM
  Tot(29)        1       10     2018    186.4    477.5   1302.6   409.21    351.1    179.0      7.4     63.1      0.0    127.2       91    368.0    371.9      100     0.000     0.000     0.000     0.000       96        0        0        0        0        0        0    17.200      100     53.8    9.254     1.88       11        1     2019  Essexvalley_SweetPotatoGDDCRO_Loam_S2_riegoIRR.PRM
