AquaCrop 6.0 (March 2017) - Output created on (date) : 3/5/2021   at (time) : 3:55:25 PM

    RunNr     Day1   Month1    Year1     Rain      ETo       GD     CO2      Irri   Infilt   Runoff    Drain   Upflow        E     E/Ex       Tr      TrW   Tr/Trx    SaltIn   SaltOut    SaltUp  SaltProf     Cycle   SaltStr  FertStr  WeedStr  TempStr   ExpStr   StoStr  BioMass  Brelative   HI     Yield     WPet     DayN   MonthN    YearN
                                           mm       mm    °C.day    ppm        mm       mm       mm       mm       mm       mm        %       mm       mm        %    ton/ha    ton/ha    ton/ha    ton/ha      days       %        %        %        %        %        %    ton/ha        %       %    ton/ha    kg/m3
   Tot(1)       31        5     1990    184.7    581.8   1666.0   354.39    362.4    181.4      3.3     29.1      0.0    224.6       71    307.2    302.7      100     0.000     0.000     0.000     0.000       89        0        0        0        0        0        0     7.097      100     25.0    1.774     0.33        2        9     1990  Essexvalley_GroundnutGDDCRO_Sand_S1_riegoIRR.PRM
   Tot(2)       31        5     1991    111.3    574.3   1677.8   355.61    394.5    111.2      0.1      0.0      0.0    221.8       71    301.1    301.4      100     0.000     0.000     0.000     0.000       90        0        0        0        0        0        0     7.207      100     25.0    1.802     0.34        3        9     1991  Essexvalley_GroundnutGDDCRO_Sand_S1_riegoIRR.PRM
   Tot(3)       31        5     1992    127.4    583.3   1671.7   356.45    395.1    127.0      0.4      4.9      0.0    224.1       71    309.7    308.5      100     0.000     0.000     0.000     0.000       89        0        0        0        0        0        0     7.148      100     25.0    1.787     0.33        2        9     1992  Essexvalley_GroundnutGDDCRO_Sand_S1_riegoIRR.PRM
   Tot(4)       31        5     1993    175.4    579.5   1697.2   356.10    383.8    174.5      0.9     16.8      0.0    247.1       80    311.4    312.4      100     0.000     0.000     0.000     0.000       91        0        0        0        0        0        0     7.330      100     25.0    1.833     0.33        4        9     1993  Essexvalley_GroundnutGDDCRO_Sand_S1_riegoIRR.PRM
   Tot(5)       31        5     1994    112.2    629.7   1674.6   358.83    425.5    112.2      0.0      0.0      0.0    231.0       66    323.4    322.9      100     0.000     0.000     0.000     0.000       89        0        0        0        0        0        0     7.196      100     25.0    1.799     0.32        2        9     1994  Essexvalley_GroundnutGDDCRO_Sand_S1_riegoIRR.PRM
   Tot(6)       31        5     1995    252.9    562.4   1663.2   360.82    276.0    252.4      0.5      5.2      0.0    249.9       80    290.2    290.3      100     0.000     0.000     0.000     0.000       88        0        0        0        0        0        0     7.138      100     25.0    1.785     0.33        1        9     1995  Essexvalley_GroundnutGDDCRO_Sand_S1_riegoIRR.PRM
   Tot(7)       31        5     1996    178.6    580.8   1668.7   362.61    334.7    178.6      0.0      0.0      0.0    235.4       72    294.9    295.0      100     0.000     0.000     0.000     0.000       89        0        0        0        0        0        0     7.263      100     25.0    1.816     0.34        2        9     1996  Essexvalley_GroundnutGDDCRO_Sand_S1_riegoIRR.PRM
   Tot(8)       31        5     1997    230.4    551.6   1699.7   363.73    329.9    226.4      4.0     44.1      0.0    234.7       80    295.2    297.0      100     0.000     0.000     0.000     0.000       91        0        0        0        0        0        0     7.463      100     25.0    1.866     0.35        4        9     1997  Essexvalley_GroundnutGDDCRO_Sand_S1_riegoIRR.PRM
   Tot(9)       31        5     1998    250.1    560.8   1644.9   366.70    281.6    243.8      6.3     25.2      0.0    224.1       71    284.2    282.4      100     0.000     0.000     0.000     0.000       87        0        0        0        0        0        0     7.076      100     25.0    1.769     0.35       30        8     1998  Essexvalley_GroundnutGDDCRO_Sand_S1_riegoIRR.PRM
  Tot(10)       31        5     1999    307.8    562.1   1683.4   368.38    230.0    304.9      2.9     15.5      0.0    243.5       79    292.8    292.7      100     0.000     0.000     0.000     0.000       90        0        0        0        0        0        0     7.465      100     25.0    1.866     0.35        3        9     1999  Essexvalley_GroundnutGDDCRO_Sand_S1_riegoIRR.PRM
  Tot(11)       31        5     2000    294.7    578.0   1694.8   369.55    290.2    287.1      7.6     35.9      0.0    241.5       76    302.3    303.2      100     0.000     0.000     0.000     0.000       91        0        0        0        0        0        0     7.598      100     25.0    1.899     0.35        4        9     2000  Essexvalley_GroundnutGDDCRO_Sand_S1_riegoIRR.PRM
  Tot(12)       31        5     2001    132.9    583.9   1652.8   371.14    370.1    132.7      0.2      0.0      0.0    223.6       68    296.0    294.9      100     0.000     0.000     0.000     0.000       88        0        0        0        0        0        0     7.265      100     25.0    1.816     0.35        1        9     2001  Essexvalley_GroundnutGDDCRO_Sand_S1_riegoIRR.PRM
  Tot(13)       31        5     2002    247.7    553.0   1690.9   373.28    342.0    239.9      7.8     69.8      0.0    233.5       79    295.6    296.1      100     0.000     0.000     0.000     0.000       91        0        0        0        0        0        0     7.593      100     25.0    1.898     0.36        4        9     2002  Essexvalley_GroundnutGDDCRO_Sand_S1_riegoIRR.PRM
  Tot(14)       31        5     2003    300.4    565.3   1670.7   375.80    262.7    293.9      6.5     21.7      0.0    250.6       80    291.7    291.5      100     0.000     0.000     0.000     0.000       89        0        0        0        0        0        0     7.491      100     25.0    1.873     0.35        2        9     2003  Essexvalley_GroundnutGDDCRO_Sand_S1_riegoIRR.PRM
  Tot(15)       31        5     2004    170.1    586.3   1659.0   377.52    349.4    167.9      2.2      6.0      0.0    227.9       70    300.4    300.3      100     0.000     0.000     0.000     0.000       88        0        0        0        0        0        0     7.414      100     25.0    1.854     0.35        1        9     2004  Essexvalley_GroundnutGDDCRO_Sand_S1_riegoIRR.PRM
  Tot(16)       31        5     2005    605.5    501.0   1687.5   379.80    166.6    551.8     53.7    244.0      0.0    225.8       84    265.5    265.8      100     0.000     0.000     0.000     0.000       90        0        0        0        0        0        0     7.597      100     25.0    1.899     0.39        2        9     2005  Essexvalley_GroundnutGDDCRO_Sand_S1_riegoIRR.PRM
  Tot(17)       31        5     2006    347.9    545.0   1677.5   381.90    256.8    338.6      9.3     82.1      0.0    242.1       82    288.4    288.8      100     0.000     0.000     0.000     0.000       89        0        0        0        0        0        0     7.611      100     25.0    1.903     0.36        2        9     2006  Essexvalley_GroundnutGDDCRO_Sand_S1_riegoIRR.PRM
  Tot(18)       31        5     2007    256.4    551.0   1676.2   383.79    271.6    251.8      4.6     30.2      0.0    226.8       74    283.3    282.4      100     0.000     0.000     0.000     0.000       90        0        0        0        0        0        0     7.643      100     25.0    1.911     0.37        2        9     2007  Essexvalley_GroundnutGDDCRO_Sand_S1_riegoIRR.PRM
  Tot(19)       31        5     2008    423.7    540.8   1670.5   385.60    256.4    371.8     51.9    112.5      0.0    236.7       79    278.6    280.6      100     0.000     0.000     0.000     0.000       89        0        0        0        0        0        0     7.637      100     25.0    1.909     0.37        2        9     2008  Essexvalley_GroundnutGDDCRO_Sand_S1_riegoIRR.PRM
  Tot(20)       31        5     2009    234.8    552.0   1686.5   387.43    300.3    231.7      3.1     17.8      0.0    234.3       80    296.8    295.1      100     0.000     0.000     0.000     0.000       90        0        0        0        0        0        0     7.757      100     25.0    1.939     0.37        3        9     2009  Essexvalley_GroundnutGDDCRO_Sand_S1_riegoIRR.PRM
  Tot(21)       31        5     2010    506.9    500.0   1670.7   389.90     86.6    496.3     10.6    110.4      0.0    231.8       84    256.4    256.7      100     0.000     0.000     0.000     0.000       89        0        0        0        0        0        0     7.667      100     25.0    1.917     0.39        1        9     2010  Essexvalley_GroundnutGDDCRO_Sand_S1_riegoIRR.PRM
  Tot(22)       31        5     2011    523.5    514.8   1689.9   391.65    147.9    497.6     25.9    142.5      0.0    240.7       88    273.9    274.2      100     0.000     0.000     0.000     0.000       90        0        0        0        0        0        0     7.844      100     25.0    1.961     0.38        3        9     2011  Essexvalley_GroundnutGDDCRO_Sand_S1_riegoIRR.PRM
  Tot(23)       31        5     2012    345.6    550.4   1672.9   393.85    231.9    330.4     15.2     74.2      0.0    224.1       73    280.9    280.3      100     0.000     0.000     0.000     0.000       89        0        0        0        0        0        0     7.788      100     25.0    1.947     0.39        2        9     2012  Essexvalley_GroundnutGDDCRO_Sand_S1_riegoIRR.PRM
  Tot(24)       31        5     2013    283.8    532.9   1669.5   396.52    220.8    282.2      1.6      4.2      0.0    232.4       80    277.4    278.0      100     0.000     0.000     0.000     0.000       90        0        0        0        0        0        0     7.830      100     25.0    1.957     0.38        2        9     2013  Essexvalley_GroundnutGDDCRO_Sand_S1_riegoIRR.PRM
  Tot(25)       31        5     2014    215.7    548.1   1670.9   398.65    310.5    211.8      3.9     14.3      0.0    227.5       76    285.2    284.8      100     0.000     0.000     0.000     0.000       89        0        0        0        0        0        0     7.840      100     25.0    1.960     0.38        2        9     2014  Essexvalley_GroundnutGDDCRO_Sand_S1_riegoIRR.PRM
  Tot(26)       31        5     2015    200.0    547.2   1670.8   400.83    348.5    195.0      5.0     37.3      0.0    233.4       80    289.9    290.0      100     0.000     0.000     0.000     0.000       89        0        0        0        0        0        0     7.878      100     25.0    1.970     0.38        2        9     2015  Essexvalley_GroundnutGDDCRO_Sand_S1_riegoIRR.PRM
  Tot(27)       31        5     2016    302.8    528.6   1652.5   404.21    257.3    295.3      7.5     48.4      0.0    233.4       80    271.8    272.1      100     0.000     0.000     0.000     0.000       88        0        0        0        0        0        0     7.732      100     25.0    1.933     0.38       31        8     2016  Essexvalley_GroundnutGDDCRO_Sand_S1_riegoIRR.PRM
  Tot(28)       31        5     2017    297.3    525.7   1679.6   406.21    289.5    243.6     53.7     68.5      0.0    207.4       73    274.2    273.7      100     0.000     0.000     0.000     0.000       89        0        0        0        0        0        0     7.966      100     25.0    1.992     0.41        2        9     2017  Essexvalley_GroundnutGDDCRO_Sand_S1_riegoIRR.PRM
  Tot(29)       31        5     2018    146.1    548.2   1684.2   408.21    350.5    145.5      0.6      5.4      0.0    215.6       74    292.0    292.3      100     0.000     0.000     0.000     0.000       90        0        0        0        0        0        0     8.079      100     25.0    2.020     0.40        3        9     2018  Essexvalley_GroundnutGDDCRO_Sand_S1_riegoIRR.PRM
