AquaCrop 6.0 (March 2017) - Output created on (date) : 3/5/2021   at (time) : 4:07:52 PM

    RunNr     Day1   Month1    Year1     Rain      ETo       GD     CO2      Irri   Infilt   Runoff    Drain   Upflow        E     E/Ex       Tr      TrW   Tr/Trx    SaltIn   SaltOut    SaltUp  SaltProf     Cycle   SaltStr  FertStr  WeedStr  TempStr   ExpStr   StoStr  BioMass  Brelative   HI     Yield     WPet     DayN   MonthN    YearN
                                           mm       mm    °C.day    ppm        mm       mm       mm       mm       mm       mm        %       mm       mm        %    ton/ha    ton/ha    ton/ha    ton/ha      days       %        %        %        %        %        %    ton/ha        %       %    ton/ha    kg/m3
   Tot(1)        1        5     1990    171.6    444.4   1508.4   354.39    298.6    151.5     20.1      4.6      0.0    192.7       88    266.8    261.7       99     0.000     0.000     0.000     0.000       72        0        0        0        0        0        0     7.873      100     55.7    4.385     0.95       13        7     1990  Essexvalley_TomatoGDDCRO_Clay_S1_riegoIRR.PRM
   Tot(2)        1        5     1991    158.3    429.8   1522.3   355.61    319.5    142.9     15.4     23.4      0.0    182.2       91    270.9    270.9      100     0.000     0.000     0.000     0.000       73        0        0        0        0        0        0     8.077      100     57.5    4.646     1.03       14        7     1991  Essexvalley_TomatoGDDCRO_Clay_S1_riegoIRR.PRM
   Tot(3)        1        5     1992    140.9    441.6   1524.6   356.45    327.5    126.9     14.0      6.2      0.0    189.9       90    271.7    271.2      100     0.000     0.000     0.000     0.000       73        0        0        0        0        0        0     8.068      100     57.5    4.641     1.01       14        7     1992  Essexvalley_TomatoGDDCRO_Clay_S1_riegoIRR.PRM
   Tot(4)        1        5     1993    293.1    412.9   1536.0   356.10    209.2    268.5     24.6     44.7      0.0    181.6       98    264.8    264.9      100     0.000     0.000     0.000     0.000       74        0        0        0        0        0        0     8.184      100     57.5    4.708     1.05       15        7     1993  Essexvalley_TomatoGDDCRO_Clay_S1_riegoIRR.PRM
   Tot(5)        1        5     1994    105.0    485.5   1516.1   358.83    394.4    102.2      2.8      0.4      0.0    202.7       90    307.0    307.0      100     0.000     0.000     0.000     0.000       72        0        0        0        0        0        0     8.025      100     55.7    4.471     0.88       13        7     1994  Essexvalley_TomatoGDDCRO_Clay_S1_riegoIRR.PRM
   Tot(6)        1        5     1995    165.5    446.8   1497.6   360.82    303.6    156.9      8.6      5.8      0.0    193.1       90    275.4    275.7      100     0.000     0.000     0.000     0.000       71        0        0        0        0        0        0     7.913      100     53.9    4.264     0.91       12        7     1995  Essexvalley_TomatoGDDCRO_Clay_S1_riegoIRR.PRM
   Tot(7)        1        5     1996    158.9    453.2   1504.9   362.61    332.7    145.8     13.1     14.4      0.0    193.4       91    284.5    284.5      100     0.000     0.000     0.000     0.000       72        0        0        0        0        0        0     8.059      100     55.7    4.489     0.94       13        7     1996  Essexvalley_TomatoGDDCRO_Clay_S1_riegoIRR.PRM
   Tot(8)        1        5     1997    192.7    451.2   1525.0   363.73    315.3    151.8     40.9     30.6      0.0    193.4       84    257.2    257.5       98     0.000     0.000     0.000     0.000       73        0        0        0        0        0        2     8.026       98     57.5    4.617     1.02       14        7     1997  Essexvalley_TomatoGDDCRO_Clay_S1_riegoIRR.PRM
   Tot(9)        1        5     1998    182.2    453.0   1487.3   366.70    313.1    155.0     27.2      7.2      0.0    197.1       89    268.9    268.4       98     0.000     0.000     0.000     0.000       70        0        0        0        0        0        1     7.721       99     53.7    4.144     0.89       11        7     1998  Essexvalley_TomatoGDDCRO_Clay_S1_riegoIRR.PRM
  Tot(10)        1        5     1999    315.0    437.7   1523.4   368.38    191.8    277.7     37.3     18.7      0.0    193.6       92    268.8    269.8      100     0.000     0.000     0.000     0.000       73        0        0        0        0        0        0     8.349      100     57.5    4.803     1.04       14        7     1999  Essexvalley_TomatoGDDCRO_Clay_S1_riegoIRR.PRM
  Tot(11)        1        5     2000    162.3    464.6   1523.8   369.55    325.9    145.0     17.3      0.0      0.0    201.1       90    283.8    283.0      100     0.000     0.000     0.000     0.000       73        0        0        0        0        0        0     8.373      100     57.5    4.817     0.99       14        7     2000  Essexvalley_TomatoGDDCRO_Clay_S1_riegoIRR.PRM
  Tot(12)        1        5     2001    195.8    456.0   1520.0   371.14    344.7    166.0     29.8     37.9      0.0    195.4       94    291.6    291.7      100     0.000     0.000     0.000     0.000       73        0        0        0        0        0        0     8.394      100     57.5    4.829     0.99       14        7     2001  Essexvalley_TomatoGDDCRO_Clay_S1_riegoIRR.PRM
  Tot(13)        1        5     2002    387.8    420.4   1529.0   373.28    269.2    278.7    109.1    130.4      0.0    181.9       88    250.0    250.4       99     0.000     0.000     0.000     0.000       74        0        0        0        0        0        1     8.508      100     57.5    4.895     1.13       15        7     2002  Essexvalley_TomatoGDDCRO_Clay_S1_riegoIRR.PRM
  Tot(14)        1        5     2003    268.7    453.8   1513.6   375.80    246.2    228.8     39.9     21.6      0.0    198.7       89    268.7    268.3       99     0.000     0.000     0.000     0.000       72        0        0        0        0        0        1     8.264       99     55.7    4.603     0.98       13        7     2003  Essexvalley_TomatoGDDCRO_Clay_S1_riegoIRR.PRM
  Tot(15)        1        5     2004    108.4    464.3   1514.2   377.52    364.8    106.1      2.3      0.1      0.0    199.0       90    286.0    286.1      100     0.000     0.000     0.000     0.000       72        0        0        0        0        0        0     8.390      100     55.7    4.674     0.96       13        7     2004  Essexvalley_TomatoGDDCRO_Clay_S1_riegoIRR.PRM
  Tot(16)        1        5     2005    602.9    394.8   1524.2   379.80     85.2    421.5    181.4    154.9      0.0    186.0       95    155.1    159.5       66     0.000     0.000     0.000     0.000       72        0        0        0        0        0       26     5.361       64     55.7    2.986     0.88       13        7     2005  Essexvalley_TomatoGDDCRO_Clay_S1_riegoIRR.PRM
  Tot(17)        1        5     2006    237.9    434.4   1497.6   381.90    278.1    192.0     45.9     50.0      0.0    190.1       87    243.7    238.8       95     0.000     0.000     0.000     0.000       71        0        0        0        0        0        4     7.813       95     53.9    4.210     0.97       12        7     2006  Essexvalley_TomatoGDDCRO_Clay_S1_riegoIRR.PRM
  Tot(18)        1        5     2007    295.7    419.7   1518.2   383.79    241.1    246.9     48.8     53.0      0.0    181.5       95    267.4    267.6      100     0.000     0.000     0.000     0.000       72        0        0        0        0        0        0     8.522      100     55.7    4.747     1.06       13        7     2007  Essexvalley_TomatoGDDCRO_Clay_S1_riegoIRR.PRM
  Tot(19)        1        5     2008    159.7    434.4   1507.5   385.60    294.4    144.6     15.1      3.6      0.0    190.1       89    259.4    259.6      100     0.000     0.000     0.000     0.000       72        0        0        0        0        0        0     8.500      100     55.7    4.735     1.05       13        7     2008  Essexvalley_TomatoGDDCRO_Clay_S1_riegoIRR.PRM
  Tot(20)        1        5     2009    294.1    419.4   1537.4   387.43    195.2    263.9     30.2     30.6      0.0    187.4       93    254.7    254.3      100     0.000     0.000     0.000     0.000       74        0        0        0        0        0        0     8.830      100     59.4    5.241     1.19       15        7     2009  Essexvalley_TomatoGDDCRO_Clay_S1_riegoIRR.PRM
  Tot(21)        1        5     2010    408.7    405.8   1510.7   389.90    165.4    314.6     94.1    105.3      0.0    185.9       91    185.3    188.2       78     0.000     0.000     0.000     0.000       71        0        0        0        0        0       17     6.394       76     57.4    3.670     0.99       12        7     2010  Essexvalley_TomatoGDDCRO_Clay_S1_riegoIRR.PRM
  Tot(22)        1        5     2011    379.5    413.3   1526.9   391.65    180.5    289.2     90.3     82.5      0.0    186.7       89    200.0    198.9       83     0.000     0.000     0.000     0.000       73        0        0        0        0        0       13     7.196       83     57.5    4.140     1.07       14        7     2011  Essexvalley_TomatoGDDCRO_Clay_S1_riegoIRR.PRM
  Tot(23)        1        5     2012    241.9    435.9   1513.5   393.85    244.4    208.4     33.5     22.9      0.0    190.2       92    253.7    252.1       95     0.000     0.000     0.000     0.000       72        0        0        0        0        0        4     8.184       95     55.7    4.559     1.03       13        7     2012  Essexvalley_TomatoGDDCRO_Clay_S1_riegoIRR.PRM
  Tot(24)        1        5     2013    230.6    417.0   1509.4   396.52    215.9    208.8     21.8      0.1      0.0    187.8       91    249.1    250.0      100     0.000     0.000     0.000     0.000       72        0        0        0        0        0        0     8.718      100     55.7    4.856     1.11       13        7     2013  Essexvalley_TomatoGDDCRO_Clay_S1_riegoIRR.PRM
  Tot(25)        1        5     2014    189.3    427.2   1508.1   398.65    287.5    171.1     18.2     21.8      0.0    191.0       93    259.9    259.0      100     0.000     0.000     0.000     0.000       72        0        0        0        0        0        0     8.757      100     55.7    4.878     1.08       13        7     2014  Essexvalley_TomatoGDDCRO_Clay_S1_riegoIRR.PRM
  Tot(26)        1        5     2015    163.1    427.8   1509.3   400.83    291.8    140.8     22.3      8.8      0.0    192.1       90    246.7    247.7       97     0.000     0.000     0.000     0.000       72        0        0        0        0        0        2     8.564       98     55.7    4.770     1.09       13        7     2015  Essexvalley_TomatoGDDCRO_Clay_S1_riegoIRR.PRM
  Tot(27)        1        5     2016    229.1    426.5   1505.6   404.21    237.8    201.5     27.6      4.2      0.0    192.3       93    256.6    255.4      100     0.000     0.000     0.000     0.000       71        0        0        0        0        0        0     8.727      100     53.9    4.703     1.05       12        7     2016  Essexvalley_TomatoGDDCRO_Clay_S1_riegoIRR.PRM
  Tot(28)        1        5     2017    405.9    391.0   1512.5   406.21    248.3    227.7    178.2     78.4      0.0    170.6       93    241.8    242.7      100     0.000     0.000     0.000     0.000       72        0        0        0        0        0        0     8.892      100     55.7    4.953     1.20       13        7     2017  Essexvalley_TomatoGDDCRO_Clay_S1_riegoIRR.PRM
  Tot(29)        1        5     2018    244.8    397.3   1520.3   408.21    235.1    215.9     28.9     42.7      0.0    175.9       95    246.4    245.7      100     0.000     0.000     0.000     0.000       73        0        0        0        0        0        0     9.056      100     57.5    5.210     1.23       14        7     2018  Essexvalley_TomatoGDDCRO_Clay_S1_riegoIRR.PRM
