AquaCrop 6.0 (March 2017) - Output created on (date) : 3/5/2021   at (time) : 3:59:59 PM

    RunNr     Day1   Month1    Year1     Rain      ETo       GD     CO2      Irri   Infilt   Runoff    Drain   Upflow        E     E/Ex       Tr      TrW   Tr/Trx    SaltIn   SaltOut    SaltUp  SaltProf     Cycle   SaltStr  FertStr  WeedStr  TempStr   ExpStr   StoStr  BioMass  Brelative   HI     Yield     WPet     DayN   MonthN    YearN
                                           mm       mm    °C.day    ppm        mm       mm       mm       mm       mm       mm        %       mm       mm        %    ton/ha    ton/ha    ton/ha    ton/ha      days       %        %        %        %        %        %    ton/ha        %       %    ton/ha    kg/m3
   Tot(1)        1       10     1990    343.3    477.9   1301.2   355.00    181.8    296.8     46.5     91.5      0.0    130.7       89    286.6    286.6       78     0.000     0.000     0.000     0.000       99        0        0        0        0        0       18    12.349       78     53.8    6.647     1.60       13        1     1991  Essexvalley_SweetPotatoGDDCRO_Clay_S2_riegoIRR.PRM
   Tot(2)        1       10     1991    186.5    510.5   1301.4   356.03    341.2    162.3     24.2      2.2      0.0    141.5       92    394.0    394.0      100     0.000     0.000     0.000     0.000      101        0        0        0        0        0        0    16.209      100     53.8    8.724     1.64       15        1     1992  Essexvalley_SweetPotatoGDDCRO_Clay_S2_riegoIRR.PRM
   Tot(3)        1       10     1992     80.8    518.5   1300.6   356.27    422.8     80.4      0.4      0.3      0.0    136.3       88    401.1    401.1      100     0.000     0.000     0.000     0.000       96        0        0        0        0        0        0    15.431      100     53.8    8.303     1.55       10        1     1993  Essexvalley_SweetPotatoGDDCRO_Clay_S2_riegoIRR.PRM
   Tot(4)        1       10     1993    197.7    508.3   1303.0   357.47    328.4    177.9     19.8      7.5      0.0    140.2       92    392.3    392.3      100     0.000     0.000     0.000     0.000       99        0        0        0        0        0        0    16.011      100     53.8    8.611     1.62       13        1     1994  Essexvalley_SweetPotatoGDDCRO_Clay_S2_riegoIRR.PRM
   Tot(5)        1       10     1994    216.2    508.8   1295.3   359.82    327.2    181.5     34.7      9.7      0.0    141.9       91    389.7    389.7      100     0.000     0.000     0.000     0.000       98        0        0        0        0        0       -0    15.916      100     53.6    8.538     1.61       12        1     1995  Essexvalley_SweetPotatoGDDCRO_Clay_S2_riegoIRR.PRM
   Tot(6)        1       10     1995    250.8    492.8   1300.4   361.72    330.4    226.8     24.0     66.8      0.0    139.5       96    383.3    383.3      100     0.000     0.000     0.000     0.000       96        0        0        0        0        0        0    15.571      100     53.8    8.373     1.61       11        1     1996  Essexvalley_SweetPotatoGDDCRO_Clay_S2_riegoIRR.PRM
   Tot(7)        1       10     1996    268.9    514.0   1299.9   363.17    309.5    226.4     42.5     48.9      0.0    134.0       93    387.5    387.5       95     0.000     0.000     0.000     0.000      102        0        0        0        0        0        5    15.704       95     53.7    8.430     1.62       16        1     1997  Essexvalley_SweetPotatoGDDCRO_Clay_S2_riegoIRR.PRM
   Tot(8)        1       10     1997    267.6    493.2   1296.7   365.22    301.9    238.5     29.1     52.8      0.0    142.5       95    379.4    379.4      100     0.000     0.000     0.000     0.000       96        0        0        0        0        0        0    15.663      100     53.6    8.401     1.62       11        1     1998  Essexvalley_SweetPotatoGDDCRO_Clay_S2_riegoIRR.PRM
   Tot(9)        1       10     1998    423.0    474.5   1300.0   367.54    180.6    334.6     88.4     51.3      0.0    128.3       91    366.0    366.0       99     0.000     0.000     0.000     0.000       98        0        0        0        0        0        0    16.240      100     53.8    8.741     1.78       12        1     1999  Essexvalley_SweetPotatoGDDCRO_Clay_S2_riegoIRR.PRM
  Tot(10)        1       10     1999    511.5    512.1   1301.2   368.97    258.5    397.2    114.3    154.6      0.0    131.6       97    403.7    403.7       98     0.000     0.000     0.000     0.000      108        0        0        0        0        0        2    17.792       99     53.9    9.582     1.80       22        1     2000  Essexvalley_SweetPotatoGDDCRO_Clay_S2_riegoIRR.PRM
  Tot(11)        1       10     2000    461.5    495.6   1298.6   370.35    210.8    342.3    119.2     78.0      0.0    142.1       91    367.0    367.0       98     0.000     0.000     0.000     0.000      101        0        0        0        0        0        2    16.503       97     53.8    8.880     1.75       16        1     2001  Essexvalley_SweetPotatoGDDCRO_Clay_S2_riegoIRR.PRM
  Tot(12)        1       10     2001    507.6    474.8   1300.2   372.21    132.2    404.4    103.2    109.4      0.0    136.8       93    322.4    322.4       89     0.000     0.000     0.000     0.000      100        0        0        0        0        0        9    15.077       90     53.8    8.115     1.78       14        1     2002  Essexvalley_SweetPotatoGDDCRO_Clay_S2_riegoIRR.PRM
  Tot(13)        1       10     2002    231.9    483.9   1294.9   374.54    307.0    203.2     28.7     34.1      0.0    129.8       91    377.3    377.3      100     0.000     0.000     0.000     0.000       96        0        0        0        0        0        0    16.099      100     53.8    8.662     1.72       10        1     2003  Essexvalley_SweetPotatoGDDCRO_Clay_S2_riegoIRR.PRM
  Tot(14)        1       10     2003    328.1    494.5   1300.3   376.66    215.2    282.0     46.1      7.8      0.0    135.3       95    387.7    387.7      100     0.000     0.000     0.000     0.000       96        0        0        0        0        0        0    16.284      100     53.8    8.757     1.68       10        1     2004  Essexvalley_SweetPotatoGDDCRO_Clay_S2_riegoIRR.PRM
  Tot(15)        1       10     2004    153.6    540.4   1303.2   378.66    390.5    143.4     10.2      4.9      0.0    137.2       89    424.5    424.5      100     0.000     0.000     0.000     0.000       97        0        0        0        0        0        0    16.673      100     53.8    8.974     1.60       11        1     2005  Essexvalley_SweetPotatoGDDCRO_Clay_S2_riegoIRR.PRM
  Tot(16)        1       10     2005    746.8    451.8   1301.8   380.85    125.4    549.2    197.6    228.0      0.0    118.7       99    362.4    362.4      100     0.000     0.000     0.000     0.000      100        0        0        0        0        0        0    17.014      100     55.0    9.358     1.95       15        1     2006  Essexvalley_SweetPotatoGDDCRO_Clay_S2_riegoIRR.PRM
  Tot(17)        1       10     2006    263.9    483.4   1303.0   382.85    255.2    216.3     47.6      5.6      0.0    136.3       92    363.8    363.8       99     0.000     0.000     0.000     0.000       93        0        0        0        0        0        1    15.869      100     53.8    8.542     1.72        7        1     2007  Essexvalley_SweetPotatoGDDCRO_Clay_S2_riegoIRR.PRM
  Tot(18)        1       10     2007    574.1    468.2   1302.7   384.70    198.2    434.7    139.4    195.5      0.0    121.9       98    350.0    350.0       93     0.000     0.000     0.000     0.000      101        0        0        0        0        0        6    16.107       93     55.0    8.859     1.89       16        1     2008  Essexvalley_SweetPotatoGDDCRO_Clay_S2_riegoIRR.PRM
  Tot(19)        1       10     2008    325.1    486.5   1305.4   386.51    260.1    266.9     58.2     69.9      0.0    132.4       96    359.4    359.4       94     0.000     0.000     0.000     0.000      101        0        0        0        0        0        5    16.420       94     53.9    8.844     1.81       15        1     2009  Essexvalley_SweetPotatoGDDCRO_Clay_S2_riegoIRR.PRM
  Tot(20)        1       10     2009    248.9    480.2   1301.9   388.66    264.3    209.7     39.2      1.5      0.0    137.1       94    369.0    369.0      100     0.000     0.000     0.000     0.000       95        0        0        0        0        0        0    16.580      100     53.8    8.921     1.77        9        1     2010  Essexvalley_SweetPotatoGDDCRO_Clay_S2_riegoIRR.PRM
  Tot(21)        1       10     2010    327.1    498.5   1299.7   390.77    270.0    277.9     49.2     59.2      0.0    128.9       94    394.5    394.5      100     0.000     0.000     0.000     0.000      106        0        0        0        0        0        0    18.768      100     53.9   10.108     1.94       21        1     2011  Essexvalley_SweetPotatoGDDCRO_Clay_S2_riegoIRR.PRM
  Tot(22)        1       10     2011    244.9    496.3   1294.8   392.75    289.7    229.5     15.4     26.3      0.0    136.4       98    391.4    391.4      100     0.000     0.000     0.000     0.000       97        0        0        0        0        0        0    16.963      100     53.7    9.107     1.73       11        1     2012  Essexvalley_SweetPotatoGDDCRO_Clay_S2_riegoIRR.PRM
  Tot(23)        1       10     2012    261.2    493.6   1296.6   395.19    317.5    206.7     54.5     39.7      0.0    133.9       94    383.5    383.5      100     0.000     0.000     0.000     0.000       98        0        0        0        0        0        0    17.281      100     53.8    9.301     1.81       12        1     2013  Essexvalley_SweetPotatoGDDCRO_Clay_S2_riegoIRR.PRM
  Tot(24)        1       10     2013    186.1    474.9   1300.2   397.58    295.9    171.2     14.9      4.6      0.0    129.0       92    367.4    367.4      100     0.000     0.000     0.000     0.000       94        0        0        0        0        0        0    16.604      100     53.8    8.938     1.81        8        1     2014  Essexvalley_SweetPotatoGDDCRO_Clay_S2_riegoIRR.PRM
  Tot(25)        1       10     2014    264.0    479.6   1298.5   399.74    228.1    233.3     30.7      0.0      0.0    133.0       89    362.7    362.7      100     0.000     0.000     0.000     0.000       96        0        0        0        0        0        0    17.076      100     53.8    9.182     1.86       10        1     2015  Essexvalley_SweetPotatoGDDCRO_Clay_S2_riegoIRR.PRM
  Tot(26)        1       10     2015    253.0    457.8   1296.7   402.52    212.7    235.4     17.6      2.4      0.0    130.3       94    350.7    350.7      100     0.000     0.000     0.000     0.000       93        0        0        0        0        0        0    16.665      100     53.8    8.971     1.87        7        1     2016  Essexvalley_SweetPotatoGDDCRO_Clay_S2_riegoIRR.PRM
  Tot(27)        1       10     2016    312.8    451.0   1299.7   405.21    183.2    277.7     35.1     21.1      0.0    126.6       96    347.9    347.9      100     0.000     0.000     0.000     0.000       95        0        0        0        0        0        0    17.088      100     53.8    9.194     1.95        9        1     2017  Essexvalley_SweetPotatoGDDCRO_Clay_S2_riegoIRR.PRM
  Tot(28)        1       10     2017    562.0    423.3   1294.3   407.21     85.4    448.8    113.2     83.0      0.0    124.8       97    323.4    319.5      100     0.000     0.000     0.000     0.000       98        0        0        0        0        0        0    17.745      100     53.8    9.550     2.13       11        1     2018  Essexvalley_SweetPotatoGDDCRO_Clay_S2_riegoIRR.PRM
  Tot(29)        1       10     2018    186.4    477.5   1302.6   409.21    354.7    160.7     25.7     48.7      0.0    133.7       95    368.0    371.9      100     0.000     0.000     0.000     0.000       96        0        0        0        0        0        0    17.200      100     53.8    9.254     1.85       11        1     2019  Essexvalley_SweetPotatoGDDCRO_Clay_S2_riegoIRR.PRM
