AquaCrop 6.0 (March 2017) - Output created on (date) : 3/5/2021   at (time) : 3:55:50 PM

    RunNr     Day1   Month1    Year1     Rain      ETo       GD     CO2      Irri   Infilt   Runoff    Drain   Upflow        E     E/Ex       Tr      TrW   Tr/Trx    SaltIn   SaltOut    SaltUp  SaltProf     Cycle   SaltStr  FertStr  WeedStr  TempStr   ExpStr   StoStr  BioMass  Brelative   HI     Yield     WPet     DayN   MonthN    YearN
                                           mm       mm    °C.day    ppm        mm       mm       mm       mm       mm       mm        %       mm       mm        %    ton/ha    ton/ha    ton/ha    ton/ha      days       %        %        %        %        %        %    ton/ha        %       %    ton/ha    kg/m3
   Tot(1)       31       10     1990    265.6    486.6   1729.6   355.00      0.0    262.9      2.7     79.8      0.0    165.4       56    118.8    118.8       65     0.000     0.000     0.000     0.000       86        0        0        0        0       39       28     3.728       47     25.4    0.948     0.34       11        2     1991  Essexvalley_GroundnutGDDCRO_Sand_S2_rainfed.PRM
   Tot(2)       31       10     1991    136.4    492.3   1722.4   356.03      0.0    132.4      4.0     33.2      0.0    104.1       31     88.1     88.1       62     0.000     0.000     0.000     0.000       78        0        0        0        0       45       30     2.737       34     21.2    0.580     0.33       11        2     1992  Essexvalley_GroundnutGDDCRO_Sand_S2_rainfed.PRM
   Tot(3)       31       10     1992    100.3    512.1   1714.9   356.27      0.0    100.3      0.0      0.0      0.0     84.3       26    105.0    103.2       52     0.000     0.000     0.000     0.000       97        0        0        0        0       48       35     3.065       39     26.1    0.801     0.42        9        2     1993  Essexvalley_GroundnutGDDCRO_Sand_S2_rainfed.PRM
   Tot(4)       31       10     1993    152.3    500.4   1724.3   357.47      0.0    150.9      1.4     17.1      0.0    101.8       36    135.6    137.3       57     0.000     0.000     0.000     0.000       97        0        0        0        0       38       31     4.305       54     26.5    1.141     0.48       10        2     1994  Essexvalley_GroundnutGDDCRO_Sand_S2_rainfed.PRM
   Tot(5)       31       10     1994    179.2    498.1   1718.8   359.82      0.0    171.7      7.5     53.8      0.0    130.7       38     83.1     83.1       58     0.000     0.000     0.000     0.000       79        0        0        0        0       48       32     2.534       32     22.3    0.564     0.28       10        2     1995  Essexvalley_GroundnutGDDCRO_Sand_S2_rainfed.PRM
   Tot(6)       31       10     1995    111.7    508.0   1716.9   361.72      0.0    111.7      0.0      0.0      0.0    115.5       36     95.8     95.8       51     0.000     0.000     0.000     0.000       93        0        0        0        0       49       40     2.996       37     26.5    0.794     0.38        9        2     1996  Essexvalley_GroundnutGDDCRO_Sand_S2_rainfed.PRM
   Tot(7)       31       10     1996    197.5    509.7   1731.9   363.17      0.0    189.5      8.0     74.2      0.0    123.6       36     89.0     89.0       60     0.000     0.000     0.000     0.000      100        0        0        0        0       52       42     2.624       32     21.2    0.556     0.26       12        2     1997  Essexvalley_GroundnutGDDCRO_Sand_S2_rainfed.PRM
   Tot(8)       31       10     1997    164.1    488.5   1720.2   365.22      0.0    164.1      0.0      0.0      0.0    127.1       45    134.2    133.5       60     0.000     0.000     0.000     0.000       97        0        0        0        0       41       28     4.227       52     26.5    1.120     0.43        9        2     1998  Essexvalley_GroundnutGDDCRO_Sand_S2_rainfed.PRM
   Tot(9)       31       10     1998    258.7    490.3   1742.8   367.54      0.0    251.8      6.9     44.9      0.0    146.5       55    165.2    165.9       67     0.000     0.000     0.000     0.000       97        0        0        0        0        8       23     5.467       66     26.5    1.449     0.47       11        2     1999  Essexvalley_GroundnutGDDCRO_Sand_S2_rainfed.PRM
  Tot(10)       31       10     1999    233.7    507.4   1743.9   368.97      0.0    226.6      7.1     88.2      0.0    137.2       44    101.5    101.5       51     0.000     0.000     0.000     0.000      104        0        0        0        0       48       41     3.351       38     26.5    0.888     0.37       17        2     2000  Essexvalley_GroundnutGDDCRO_Sand_S2_rainfed.PRM
  Tot(11)       31       10     2000    404.8    478.6   1727.5   370.35      0.0    379.7     25.1    139.4      0.0    111.9       43    230.4    229.8       92     0.000     0.000     0.000     0.000      100        0        0        0        0        0        5     8.008       94     26.2    2.100     0.61       13        2     2001  Essexvalley_GroundnutGDDCRO_Sand_S2_rainfed.PRM
  Tot(12)       31       10     2001    346.4    467.8   1733.1   372.21      0.0    332.7     13.7     93.5      0.0    143.8       58    199.8    200.3       81     0.000     0.000     0.000     0.000       98        0        0        0        0        3       13     6.823       82     26.5    1.808     0.53       11        2     2002  Essexvalley_GroundnutGDDCRO_Sand_S2_rainfed.PRM
  Tot(13)       31       10     2002    204.8    482.3   1728.2   374.54      0.0    199.9      4.9      0.0      0.0    111.0       41    186.0    184.7       76     0.000     0.000     0.000     0.000       96        0        0        0        0       33       16     6.129       74     26.5    1.624     0.55        9        2     2003  Essexvalley_GroundnutGDDCRO_Sand_S2_rainfed.PRM
  Tot(14)       31       10     2003    248.1    503.3   1710.3   376.66      0.0    246.9      1.2     33.6      0.0    152.5       54    165.7    167.1       70     0.000     0.000     0.000     0.000       96        0        0        0        0       15       25     5.301       64     26.5    1.405     0.44        9        2     2004  Essexvalley_GroundnutGDDCRO_Sand_S2_rainfed.PRM
  Tot(15)       31       10     2004    139.2    543.3   1719.9   378.66      0.0    139.2      0.0      0.0      0.0     93.9       30    148.8    148.8       59     0.000     0.000     0.000     0.000      100        0        0        0        0       38       30     4.831       56     26.5    1.280     0.53       12        2     2005  Essexvalley_GroundnutGDDCRO_Sand_S2_rainfed.PRM
  Tot(16)       31       10     2005    288.7    472.4   1727.9   380.85      0.0    284.3      4.4     34.0      0.0    139.0       54    209.6    208.5       86     0.000     0.000     0.000     0.000       99        0        0        0        0        5        9     7.389       86     26.5    1.958     0.56       11        2     2006  Essexvalley_GroundnutGDDCRO_Sand_S2_rainfed.PRM
  Tot(17)       31       10     2006    185.6    487.8   1695.5   382.85      0.0    177.7      7.9     51.0      0.0    129.2       40     95.3     96.4       61     0.000     0.000     0.000     0.000       79        0        0        0        0       43       29     3.068       38     22.3    0.683     0.31        6        2     2007  Essexvalley_GroundnutGDDCRO_Sand_S2_rainfed.PRM
  Tot(18)       31       10     2007    278.9    486.4   1746.7   384.70      0.0    262.4     16.5    115.3      0.0    133.0       47    116.2    116.2       56     0.000     0.000     0.000     0.000       98        0        0        0        0       43       36     3.967       46     26.5    1.051     0.42       12        2     2008  Essexvalley_GroundnutGDDCRO_Sand_S2_rainfed.PRM
  Tot(19)       31       10     2008    224.2    494.0   1747.8   386.51      0.0    215.3      8.9     91.3      0.0    130.9       42     93.0     93.0       52     0.000     0.000     0.000     0.000       99        0        0        0        0       50       41     3.094       35     26.5    0.820     0.37       13        2     2009  Essexvalley_GroundnutGDDCRO_Sand_S2_rainfed.PRM
  Tot(20)       31       10     2009    158.8    477.5   1711.3   388.66      0.0    155.1      3.7      2.0      0.0     89.0       33    168.9    168.8       73     0.000     0.000     0.000     0.000       96        0        0        0        0       14       21     5.946       70     26.5    1.576     0.61        9        2     2010  Essexvalley_GroundnutGDDCRO_Sand_S2_rainfed.PRM
  Tot(21)       31       10     2010    151.0    489.7   1743.9   390.77      0.0    150.8      0.2     20.0      0.0    110.0       37    123.5    123.5       64     0.000     0.000     0.000     0.000       96        0        0        0        0       40       29     4.506       50     26.5    1.194     0.53       16        2     2011  Essexvalley_GroundnutGDDCRO_Sand_S2_rainfed.PRM
  Tot(22)       31       10     2011     80.8    501.8   1714.0   392.75      0.0     80.8      0.0      1.8      0.0     88.8       25     85.4     85.4       61     0.000     0.000     0.000     0.000       78        0        0        0        0       45       30     2.797       33     21.2    0.593     0.37        9        2     2012  Essexvalley_GroundnutGDDCRO_Sand_S2_rainfed.PRM
  Tot(23)       31       10     2012    108.0    489.5   1715.4   395.19      0.0    107.9      0.1      6.9      0.0    108.3       33     91.2     91.2       60     0.000     0.000     0.000     0.000       79        0        0        0        0       43       29     3.107       36     23.3    0.724     0.38        9        2     2013  Essexvalley_GroundnutGDDCRO_Sand_S2_rainfed.PRM
  Tot(24)       31       10     2013    158.1    472.8   1707.3   397.58      0.0    156.3      1.8     15.7      0.0    113.2       42    128.8    128.8       59     0.000     0.000     0.000     0.000       95        0        0        0        0       38       30     4.417       52     26.5    1.170     0.48        7        2     2014  Essexvalley_GroundnutGDDCRO_Sand_S2_rainfed.PRM
  Tot(25)       31       10     2014    199.4    466.1   1723.3   399.74      0.0    197.6      1.8     25.9      0.0    127.2       49    149.6    149.6       66     0.000     0.000     0.000     0.000       96        0        0        0        0       16       26     5.363       62     26.5    1.421     0.51        9        2     2015  Essexvalley_GroundnutGDDCRO_Sand_S2_rainfed.PRM
  Tot(26)       31       10     2015    185.4    454.8   1711.2   402.52      0.0    184.5      0.9     16.5      0.0    158.3       56    111.6    111.6       65     0.000     0.000     0.000     0.000       87        0        0        0        0       42       29     3.993       47     26.5    1.058     0.40        7        2     2016  Essexvalley_GroundnutGDDCRO_Sand_S2_rainfed.PRM
  Tot(27)       31       10     2016    163.7    472.3   1725.3   405.21      0.0    162.4      1.3     30.5      0.0    133.3       44     98.7     98.7       62     0.000     0.000     0.000     0.000       83        0        0        0        0       42       30     3.542       40     24.4    0.863     0.38        9        2     2017  Essexvalley_GroundnutGDDCRO_Sand_S2_rainfed.PRM
  Tot(28)       31       10     2017    403.3    417.6   1732.9   407.21      0.0    390.2     13.1     86.7      0.0    153.6       70    223.9    220.7      100     0.000     0.000     0.000     0.000       98        0        0        0        0        2        0     8.936      100     25.6    2.285     0.61       10        2     2018  Essexvalley_GroundnutGDDCRO_Sand_S2_rainfed.PRM
  Tot(29)       31       10     2018     63.0    470.4   1708.0   409.21      0.0     63.0      0.0      0.0      0.0     66.6       21     90.8     94.0       63     0.000     0.000     0.000     0.000       79        0        0        0        0       47       29     3.197       37     22.3    0.712     0.50        8        2     2019  Essexvalley_GroundnutGDDCRO_Sand_S2_rainfed.PRM
