AquaCrop 6.0 (March 2017) - Output created on (date) : 3/5/2021   at (time) : 3:57:37 PM

    RunNr     Day1   Month1    Year1     Rain      ETo       GD     CO2      Irri   Infilt   Runoff    Drain   Upflow        E     E/Ex       Tr      TrW   Tr/Trx    SaltIn   SaltOut    SaltUp  SaltProf     Cycle   SaltStr  FertStr  WeedStr  TempStr   ExpStr   StoStr  BioMass  Brelative   HI     Yield     WPet     DayN   MonthN    YearN
                                           mm       mm    °C.day    ppm        mm       mm       mm       mm       mm       mm        %       mm       mm        %    ton/ha    ton/ha    ton/ha    ton/ha      days       %        %        %        %        %        %    ton/ha        %       %    ton/ha    kg/m3
   Tot(1)       31       10     1990    265.6    486.6   1729.6   355.00      0.0    263.1      2.5     74.2      0.0    172.5       70    195.2    195.0       74     0.000     0.000     0.000     0.000       98        0        0        0        0        6       18     5.894       74     26.5    1.562     0.42       11        2     1991  Essexvalley_GroundnutGDDCRO_SandyLoam_S2_rainfed.PRM
   Tot(2)       31       10     1991    136.4    492.3   1722.4   356.03      0.0    132.5      3.9     27.9      0.0    112.2       41    168.4    166.8       70     0.000     0.000     0.000     0.000       98        0        0        0        0       38       22     5.259       65     26.5    1.394     0.50       11        2     1992  Essexvalley_GroundnutGDDCRO_SandyLoam_S2_rainfed.PRM
   Tot(3)       31       10     1992    100.3    512.1   1714.9   356.27      0.0    100.3      0.0      0.0      0.0     79.5       28    188.4    186.9       73     0.000     0.000     0.000     0.000       97        0        0        0        0       43       19     5.498       70     26.5    1.457     0.54        9        2     1993  Essexvalley_GroundnutGDDCRO_SandyLoam_S2_rainfed.PRM
   Tot(4)       31       10     1993    152.3    500.4   1724.3   357.47      0.0    151.5      0.8     11.2      0.0    112.8       42    205.8    208.7       79     0.000     0.000     0.000     0.000       97        0        0        0        0        2       14     6.376       80     26.5    1.690     0.53       10        2     1994  Essexvalley_GroundnutGDDCRO_SandyLoam_S2_rainfed.PRM
   Tot(5)       31       10     1994    179.2    498.1   1718.8   359.82      0.0    171.9      7.3     51.7      0.0    133.1       49    165.8    166.0       67     0.000     0.000     0.000     0.000       97        0        0        0        0       40       26     4.988       62     26.5    1.322     0.44       10        2     1995  Essexvalley_GroundnutGDDCRO_SandyLoam_S2_rainfed.PRM
   Tot(6)       31       10     1995    111.7    508.0   1716.9   361.72      0.0    111.7      0.0      0.0      0.0    118.0       42    170.5    170.5       68     0.000     0.000     0.000     0.000       96        0        0        0        0       37       24     5.150       64     26.5    1.365     0.47        9        2     1996  Essexvalley_GroundnutGDDCRO_SandyLoam_S2_rainfed.PRM
   Tot(7)       31       10     1996    197.5    509.7   1731.9   363.17      0.0    190.4      7.1     69.5      0.0    130.3       47    168.5    168.6       68     0.000     0.000     0.000     0.000      100        0        0        0        0       40       26     4.997       60     26.5    1.324     0.44       12        2     1997  Essexvalley_GroundnutGDDCRO_SandyLoam_S2_rainfed.PRM
   Tot(8)       31       10     1997    164.1    488.5   1720.2   365.22      0.0    164.1      0.0      0.0      0.0    127.9       49    212.5    212.0       83     0.000     0.000     0.000     0.000       97        0        0        0        0        9       12     6.633       82     26.5    1.758     0.52        9        2     1998  Essexvalley_GroundnutGDDCRO_SandyLoam_S2_rainfed.PRM
   Tot(9)       31       10     1998    258.7    490.3   1742.8   367.54      0.0    252.4      6.3     38.0      0.0    154.0       59    232.6    233.1       89     0.000     0.000     0.000     0.000       97        0        0        0        0        0        7     7.459       91     26.5    1.977     0.51       11        2     1999  Essexvalley_GroundnutGDDCRO_SandyLoam_S2_rainfed.PRM
  Tot(10)       31       10     1999    233.7    507.4   1743.9   368.97      0.0    226.9      6.8     84.3      0.0    138.8       52    182.9    182.9       69     0.000     0.000     0.000     0.000      104        0        0        0        0       16       22     5.884       67     26.5    1.559     0.49       17        2     2000  Essexvalley_GroundnutGDDCRO_SandyLoam_S2_rainfed.PRM
  Tot(11)       31       10     2000    404.8    478.6   1727.5   370.35      0.0    380.5     24.3    132.0      0.0    122.4       47    249.6    246.0      100     0.000     0.000     0.000     0.000      100        0        0        0        0        0        0     8.562      100     25.0    2.143     0.58       13        2     2001  Essexvalley_GroundnutGDDCRO_SandyLoam_S2_rainfed.PRM
  Tot(12)       31       10     2001    346.4    467.8   1733.1   372.21      0.0    333.4     13.0     90.9      0.0    153.2       62    247.2    248.3       99     0.000     0.000     0.000     0.000       98        0        0        0        0        0        1     8.238       99     25.8    2.125     0.53       11        2     2002  Essexvalley_GroundnutGDDCRO_SandyLoam_S2_rainfed.PRM
  Tot(13)       31       10     2002    204.8    482.3   1728.2   374.54      0.0    201.7      3.1      0.0      0.0    114.7       44    246.4    246.5       97     0.000     0.000     0.000     0.000       96        0        0        0        0        7        2     8.011       97     26.5    2.123     0.59        9        2     2003  Essexvalley_GroundnutGDDCRO_SandyLoam_S2_rainfed.PRM
  Tot(14)       31       10     2003    248.1    503.3   1710.3   376.66      0.0    247.1      1.0     22.1      0.0    164.8       62    234.4    235.9       87     0.000     0.000     0.000     0.000       96        0        0        0        0        0        8     7.399       89     26.5    1.961     0.49        9        2     2004  Essexvalley_GroundnutGDDCRO_SandyLoam_S2_rainfed.PRM
  Tot(15)       31       10     2004    139.2    543.3   1719.9   378.66      0.0    139.2      0.0      0.0      0.0     99.7       33    218.0    218.4       79     0.000     0.000     0.000     0.000      100        0        0        0        0        0       14     6.913       80     26.5    1.832     0.58       12        2     2005  Essexvalley_GroundnutGDDCRO_SandyLoam_S2_rainfed.PRM
  Tot(16)       31       10     2005    288.7    472.4   1727.9   380.85      0.0    286.2      2.5     25.3      0.0    154.3       61    248.5    245.6      100     0.000     0.000     0.000     0.000       99        0        0        0        0        0        0     8.583      100     26.2    2.245     0.56       11        2     2006  Essexvalley_GroundnutGDDCRO_SandyLoam_S2_rainfed.PRM
  Tot(17)       31       10     2006    185.6    487.8   1695.5   382.85      0.0    182.3      3.3     46.4      0.0    140.2       53    172.7    175.8       70     0.000     0.000     0.000     0.000       94        0        0        0        0       17       22     5.357       66     26.5    1.420     0.45        6        2     2007  Essexvalley_GroundnutGDDCRO_SandyLoam_S2_rainfed.PRM
  Tot(18)       31       10     2007    278.9    486.4   1746.7   384.70      0.0    262.3     16.6    113.0      0.0    139.8       55    188.0    188.2       74     0.000     0.000     0.000     0.000       98        0        0        0        0        5       18     6.367       74     26.5    1.687     0.52       12        2     2008  Essexvalley_GroundnutGDDCRO_SandyLoam_S2_rainfed.PRM
  Tot(19)       31       10     2008    224.2    494.0   1747.8   386.51      0.0    215.3      8.9     87.9      0.0    137.4       52    168.2    168.2       67     0.000     0.000     0.000     0.000       99        0        0        0        0       39       25     5.598       64     26.5    1.484     0.49       13        2     2009  Essexvalley_GroundnutGDDCRO_SandyLoam_S2_rainfed.PRM
  Tot(20)       31       10     2009    158.8    477.5   1711.3   388.66      0.0    155.8      3.0      0.0      0.0     98.4       38    228.6    227.6       92     0.000     0.000     0.000     0.000       96        0        0        0        0        0        6     7.843       92     26.5    2.078     0.64        9        2     2010  Essexvalley_GroundnutGDDCRO_SandyLoam_S2_rainfed.PRM
  Tot(21)       31       10     2010    151.0    489.7   1743.9   390.77      0.0    150.6      0.4     14.4      0.0    119.1       45    195.0    195.9       78     0.000     0.000     0.000     0.000      103        0        0        0        0        2       15     7.075       78     26.5    1.875     0.60       16        2     2011  Essexvalley_GroundnutGDDCRO_SandyLoam_S2_rainfed.PRM
  Tot(22)       31       10     2011     80.8    501.8   1714.0   392.75      0.0     80.8      0.0      1.6      0.0     93.8       33    163.1    162.9       68     0.000     0.000     0.000     0.000       97        0        0        0        0       39       25     5.370       63     26.5    1.423     0.55        9        2     2012  Essexvalley_GroundnutGDDCRO_SandyLoam_S2_rainfed.PRM
  Tot(23)       31       10     2012    108.0    489.5   1715.4   395.19      0.0    107.8      0.2      6.3      0.0    113.3       42    166.1    166.2       70     0.000     0.000     0.000     0.000       96        0        0        0        0       37       24     5.495       64     26.5    1.456     0.52        9        2     2013  Essexvalley_GroundnutGDDCRO_SandyLoam_S2_rainfed.PRM
  Tot(24)       31       10     2013    158.1    472.8   1707.3   397.58      0.0    156.3      1.8     15.0      0.0    116.0       46    201.9    201.4       81     0.000     0.000     0.000     0.000       95        0        0        0        0        2       13     6.847       81     26.5    1.814     0.57        7        2     2014  Essexvalley_GroundnutGDDCRO_SandyLoam_S2_rainfed.PRM
  Tot(25)       31       10     2014    199.4    466.1   1723.3   399.74      0.0    197.9      1.5     16.7      0.0    135.6       54    218.0    217.8       89     0.000     0.000     0.000     0.000       96        0        0        0        0        0        8     7.801       90     26.5    2.067     0.58        9        2     2015  Essexvalley_GroundnutGDDCRO_SandyLoam_S2_rainfed.PRM
  Tot(26)       31       10     2015    185.4    454.8   1711.2   402.52      0.0    184.5      0.9     13.6      0.0    163.2       67    185.6    186.0       78     0.000     0.000     0.000     0.000       95        0        0        0        0        3       15     6.676       78     26.5    1.769     0.51        7        2     2016  Essexvalley_GroundnutGDDCRO_SandyLoam_S2_rainfed.PRM
  Tot(27)       31       10     2016    163.7    472.3   1725.3   405.21      0.0    162.4      1.3     22.0      0.0    143.9       58    176.1    176.3       72     0.000     0.000     0.000     0.000       97        0        0        0        0        8       21     6.112       70     26.5    1.620     0.51        9        2     2017  Essexvalley_GroundnutGDDCRO_SandyLoam_S2_rainfed.PRM
  Tot(28)       31       10     2017    403.3    417.6   1732.9   407.21      0.0    392.4     10.9     78.3      0.0    164.5       75    223.9    220.8      100     0.000     0.000     0.000     0.000       98        0        0        0        0        0        0     8.936      100     25.0    2.234     0.58       10        2     2018  Essexvalley_GroundnutGDDCRO_SandyLoam_S2_rainfed.PRM
  Tot(29)       31       10     2018     63.0    470.4   1708.0   409.21      0.0     63.0      0.0      0.0      0.0     64.7       25    176.5    179.3       74     0.000     0.000     0.000     0.000       95        0        0        0        0       34       19     6.233       71     26.5    1.652     0.68        8        2     2019  Essexvalley_GroundnutGDDCRO_SandyLoam_S2_rainfed.PRM
