AquaCrop 6.0 (March 2017) - Output created on (date) : 3/5/2021   at (time) : 4:08:12 PM

    RunNr     Day1   Month1    Year1     Rain      ETo       GD     CO2      Irri   Infilt   Runoff    Drain   Upflow        E     E/Ex       Tr      TrW   Tr/Trx    SaltIn   SaltOut    SaltUp  SaltProf     Cycle   SaltStr  FertStr  WeedStr  TempStr   ExpStr   StoStr  BioMass  Brelative   HI     Yield     WPet     DayN   MonthN    YearN
                                           mm       mm    °C.day    ppm        mm       mm       mm       mm       mm       mm        %       mm       mm        %    ton/ha    ton/ha    ton/ha    ton/ha      days       %        %        %        %        %        %    ton/ha        %       %    ton/ha    kg/m3
   Tot(1)        1       10     1990    334.7    336.3   1537.2   354.39      0.0    296.9     37.8    143.3      0.0    122.8       68     32.9     32.0       18     0.000     0.000     0.000     0.000       74        0        0        0        0        6       58     1.307       16     57.7    0.754     0.48       15       12     1990  Essexvalley_TomatoGDDCRO_Clay_S2_rainfed.PRM
   Tot(2)        1       10     1991    173.7    368.8   1534.0   355.61      0.0    167.4      6.3      1.8      0.0    130.4       66    164.9    164.8       80     0.000     0.000     0.000     0.000       74        0        0        0        0       39       15     5.986       73     55.0    3.291     1.11       15       12     1991  Essexvalley_TomatoGDDCRO_Clay_S2_rainfed.PRM
   Tot(3)        1       10     1992     53.8    375.1   1505.8   356.45      0.0     53.8      0.0      0.3      0.0     90.5       35     96.7     97.2       65     0.000     0.000     0.000     0.000       72        0        0        0        0       59       25     3.355       42     48.7    1.636     0.87       13       12     1992  Essexvalley_TomatoGDDCRO_Clay_S2_rainfed.PRM
   Tot(4)        1       10     1993    166.8    369.9   1520.5   356.10      0.0    163.2      3.6      7.4      0.0    131.8       59    140.2    139.4       77     0.000     0.000     0.000     0.000       73        0        0        0        0       51       17     5.065       63     53.2    2.697     0.99       14       12     1993  Essexvalley_TomatoGDDCRO_Clay_S2_rainfed.PRM
   Tot(5)        1       10     1994    199.7    368.5   1522.5   358.83      0.0    184.3     15.4      0.0      0.0    126.9       65    172.5    171.8       83     0.000     0.000     0.000     0.000       73        0        0        0        0       12       14     6.288       77     55.1    3.463     1.16       14       12     1994  Essexvalley_TomatoGDDCRO_Clay_S2_rainfed.PRM
   Tot(6)        1       10     1995    225.6    358.8   1527.1   360.82      0.0    202.7     22.9     68.8      0.0    143.2       68    115.6    117.0       63     0.000     0.000     0.000     0.000       73        0        0        0        0       56       42     4.140       51     52.0    2.153     0.83       14       12     1995  Essexvalley_TomatoGDDCRO_Clay_S2_rainfed.PRM
   Tot(7)        1       10     1996    256.0    361.2   1541.2   362.61      0.0    232.2     23.8      3.3      0.0    143.5       82    177.4    174.4       81     0.000     0.000     0.000     0.000       75        0        0        0        0       15       20     6.566       77     57.6    3.779     1.18       16       12     1996  Essexvalley_TomatoGDDCRO_Clay_S2_rainfed.PRM
   Tot(8)        1       10     1997    230.1    360.2   1527.9   363.73      0.0    207.2     22.9     55.9      0.0    145.0       73    134.7    137.7       69     0.000     0.000     0.000     0.000       73        0        0        0        0       50       36     4.925       60     52.6    2.593     0.93       14       12     1997  Essexvalley_TomatoGDDCRO_Clay_S2_rainfed.PRM
   Tot(9)        1       10     1998    375.8    343.2   1529.0   366.70      0.0    309.5     66.3    107.0      0.0    142.3       83     59.2     59.0       29     0.000     0.000     0.000     0.000       73        0        0        0        0        4       56     2.250       27     57.7    1.297     0.64       14       12     1998  Essexvalley_TomatoGDDCRO_Clay_S2_rainfed.PRM
  Tot(10)        1       10     1999    487.3    341.3   1540.4   368.38      0.0    379.7    107.6    206.9      0.0    148.6       95    112.5    111.1       52     0.000     0.000     0.000     0.000       76        0        0        0        0        0       54     4.254       48     57.4    2.441     0.93       17       12     1999  Essexvalley_TomatoGDDCRO_Clay_S2_rainfed.PRM
  Tot(11)        1       10     2000    339.5    366.8   1532.1   369.55      0.0    261.5     78.0     11.2      0.0    122.8       60    145.9    146.0       74     0.000     0.000     0.000     0.000       74        0        0        0        0       37       18     5.632       66     56.1    3.157     1.18       15       12     2000  Essexvalley_TomatoGDDCRO_Clay_S2_rainfed.PRM
  Tot(12)        1       10     2001    377.1    352.9   1533.0   371.14      0.0    306.9     70.2    134.6      0.0    146.5       83     88.8     86.7       42     0.000     0.000     0.000     0.000       74        0        0        0        0        3       45     3.389       40     57.7    1.954     0.83       15       12     2001  Essexvalley_TomatoGDDCRO_Clay_S2_rainfed.PRM
  Tot(13)        1       10     2002    171.3    361.4   1530.1   373.28      0.0    157.5     13.8     24.0      0.0    132.9       68    132.8    136.1       67     0.000     0.000     0.000     0.000       73        0        0        0        0       48       29     4.997       59     52.6    2.628     0.99       14       12     2002  Essexvalley_TomatoGDDCRO_Clay_S2_rainfed.PRM
  Tot(14)        1       10     2003    274.6    357.2   1516.6   375.80      0.0    266.5      8.1      8.5      0.0    140.5       79    197.5    194.3       93     0.000     0.000     0.000     0.000       72        0        0        0        0       14        5     7.523       90     57.0    4.288     1.27       13       12     2003  Essexvalley_TomatoGDDCRO_Clay_S2_rainfed.PRM
  Tot(15)        1       10     2004     81.4    405.7   1506.5   377.52      0.0     80.2      1.2      5.4      0.0    103.8       39    108.0    111.4       62     0.000     0.000     0.000     0.000       72        0        0        0        0       57       27     3.574       43     49.3    1.764     0.83       13       12     2004  Essexvalley_TomatoGDDCRO_Clay_S2_rainfed.PRM
  Tot(16)        1       10     2005    640.4    322.9   1539.0   379.80      0.0    453.9    186.5    290.1      0.0    136.8       99     68.2     65.8       32     0.000     0.000     0.000     0.000       74        0        0        0        0        0       72     2.737       31     57.7    1.578     0.77       15       12     2005  Essexvalley_TomatoGDDCRO_Clay_S2_rainfed.PRM
  Tot(17)        1       10     2006    248.4    353.6   1500.6   381.90      0.0    232.0     16.4      2.7      0.0    124.7       66    170.0    168.3       86     0.000     0.000     0.000     0.000       71        0        0        0        0       11       10     6.790       81     55.7    3.782     1.28       12       12     2006  Essexvalley_TomatoGDDCRO_Clay_S2_rainfed.PRM
  Tot(18)        1       10     2007    563.3    328.2   1553.2   383.79      0.0    424.4    138.9    252.4      0.0    138.5       96     73.0     77.5       35     0.000     0.000     0.000     0.000       74        0        0        0        0        0       68     2.910       33     59.0    1.717     0.82       16       12     2007  Essexvalley_TomatoGDDCRO_Clay_S2_rainfed.PRM
  Tot(19)        1       10     2008    311.4    339.7   1535.6   385.60      0.0    268.2     43.2     85.1      0.0    142.8       88     81.0     77.3       39     0.000     0.000     0.000     0.000       74        0        0        0        0        1       50     3.313       37     59.4    1.969     0.88       15       12     2008  Essexvalley_TomatoGDDCRO_Clay_S2_rainfed.PRM
  Tot(20)        1       10     2009    159.0    360.3   1496.5   387.43      0.0    158.5      0.5      0.7      0.0    138.3       77    153.4    156.2       72     0.000     0.000     0.000     0.000       71        0        0        0        0       30       24     5.969       71     52.0    3.106     1.06       12       12     2009  Essexvalley_TomatoGDDCRO_Clay_S2_rainfed.PRM
  Tot(21)        1       10     2010    304.8    345.7   1541.0   389.90      0.0    274.7     30.1     75.0      0.0    144.4       92    119.6    118.2       54     0.000     0.000     0.000     0.000       76        0        0        0        0        0       46     5.100       55     57.9    2.951     1.12       17       12     2010  Essexvalley_TomatoGDDCRO_Clay_S2_rainfed.PRM
  Tot(22)        1       10     2011    230.5    362.9   1529.8   391.65      0.0    217.0     13.5     47.8      0.0    154.1       93    125.9    126.9       55     0.000     0.000     0.000     0.000       73        0        0        0        0        0       47     4.773       54     55.0    2.626     0.94       14       12     2011  Essexvalley_TomatoGDDCRO_Clay_S2_rainfed.PRM
  Tot(23)        1       10     2012    251.6    354.6   1537.1   393.85      0.0    216.5     35.1     32.6      0.0    131.7       76    160.8    159.9       76     0.000     0.000     0.000     0.000       74        0        0        0        0        4       21     6.663       74     57.1    3.805     1.30       15       12     2012  Essexvalley_TomatoGDDCRO_Clay_S2_rainfed.PRM
  Tot(24)        1       10     2013    162.3    344.8   1498.8   396.52      0.0    160.5      1.8      5.1      0.0    128.3       71    152.8    152.6       78     0.000     0.000     0.000     0.000       71        0        0        0        0       37       15     6.262       73     52.6    3.291     1.17       12       12     2013  Essexvalley_TomatoGDDCRO_Clay_S2_rainfed.PRM
  Tot(25)        1       10     2014    212.2    353.3   1511.8   398.65      0.0    210.5      1.7      0.0      0.0    134.9       71    171.9    171.2       88     0.000     0.000     0.000     0.000       72        0        0        0        0       27       10     7.188       82     54.9    3.949     1.29       13       12     2014  Essexvalley_TomatoGDDCRO_Clay_S2_rainfed.PRM
  Tot(26)        1       10     2015    225.6    338.4   1507.2   400.83      0.0    224.6      1.0      2.4      0.0    142.2       84    184.9    185.4       92     0.000     0.000     0.000     0.000       71        0        0        0        0        8       10     7.908       91     55.0    4.352     1.33       12       12     2015  Essexvalley_TomatoGDDCRO_Clay_S2_rainfed.PRM
  Tot(27)        1       10     2016    301.9    326.5   1516.9   404.21      0.0    273.5     28.4     82.8      0.0    148.2       95     48.5     49.8       24     0.000     0.000     0.000     0.000       72        0        0        0        0        0       65     2.115       24     57.5    1.217     0.62       13       12     2016  Essexvalley_TomatoGDDCRO_Clay_S2_rainfed.PRM
  Tot(28)        1       10     2017    468.2    308.9   1534.9   406.21      0.0    382.5     85.7    202.1      0.0    145.4       95     27.1     28.2       15     0.000     0.000     0.000     0.000       73        0        0        0        0        0       77     1.206       13     57.7    0.695     0.40       14       12     2017  Essexvalley_TomatoGDDCRO_Clay_S2_rainfed.PRM
  Tot(29)        1       10     2018    163.0    346.4   1525.4   408.21      0.0    138.4     24.6     50.2      0.0    114.9       58    103.8    103.7       60     0.000     0.000     0.000     0.000       73        0        0        0        0       54       44     4.312       48     49.9    2.153     0.98       14       12     2018  Essexvalley_TomatoGDDCRO_Clay_S2_rainfed.PRM
