AquaCrop 6.0 (March 2017) - Output created on (date) : 3/5/2021   at (time) : 3:51:36 PM

    RunNr     Day1   Month1    Year1     Rain      ETo       GD     CO2      Irri   Infilt   Runoff    Drain   Upflow        E     E/Ex       Tr      TrW   Tr/Trx    SaltIn   SaltOut    SaltUp  SaltProf     Cycle   SaltStr  FertStr  WeedStr  TempStr   ExpStr   StoStr  BioMass  Brelative   HI     Yield     WPet     DayN   MonthN    YearN
                                           mm       mm    °C.day    ppm        mm       mm       mm       mm       mm       mm        %       mm       mm        %    ton/ha    ton/ha    ton/ha    ton/ha      days       %        %        %        %        %        %    ton/ha        %       %    ton/ha    kg/m3
   Tot(1)       31        5     1990    184.7    581.8   1666.0   354.39      0.0    181.5      3.2      4.2      0.0    172.6       54    237.5    235.0       79     0.000     0.000     0.000     0.000       89        0        0        0        0       36       15     5.466       77     26.5    1.449     0.35        2        9     1990  Essexvalley_GroundnutGDDCRO_ClayLoam_S1_rainfed.PRM
   Tot(2)       31        5     1991    111.3    574.3   1677.8   355.61      0.0    111.3      0.0      0.0      0.0    122.1       38    218.7    220.1       75     0.000     0.000     0.000     0.000       90        0        0        0        0       39       17     5.267       73     26.5    1.396     0.41        3        9     1991  Essexvalley_GroundnutGDDCRO_ClayLoam_S1_rainfed.PRM
   Tot(3)       31        5     1992    127.4    583.3   1671.7   356.45      0.0    127.4      0.0      0.0      0.0    145.1       45    219.2    219.7       74     0.000     0.000     0.000     0.000       89        0        0        0        0       39       18     5.123       72     26.5    1.357     0.37        2        9     1992  Essexvalley_GroundnutGDDCRO_ClayLoam_S1_rainfed.PRM
   Tot(4)       31        5     1993    175.4    579.5   1697.2   356.10      0.0    170.2      5.2     10.3      0.0    169.1       54    223.0    222.6       74     0.000     0.000     0.000     0.000       91        0        0        0        0       37       19     5.235       71     26.5    1.387     0.35        4        9     1993  Essexvalley_GroundnutGDDCRO_ClayLoam_S1_rainfed.PRM
   Tot(5)       31        5     1994    112.2    629.7   1674.6   358.83      0.0    112.2      0.0      0.0      0.0    125.7       35    220.2    220.3       71     0.000     0.000     0.000     0.000       89        0        0        0        0       44       21     4.815       67     26.5    1.276     0.37        2        9     1994  Essexvalley_GroundnutGDDCRO_ClayLoam_S1_rainfed.PRM
   Tot(6)       31        5     1995    252.9    562.4   1663.2   360.82      0.0    250.7      2.2      2.1      0.0    193.5       62    274.7    273.3       95     0.000     0.000     0.000     0.000       88        0        0        0        0        7        3     6.771       95     26.5    1.794     0.38        1        9     1995  Essexvalley_GroundnutGDDCRO_ClayLoam_S1_rainfed.PRM
   Tot(7)       31        5     1996    178.6    580.8   1668.7   362.61      0.0    178.6      0.0      0.0      0.0    155.0       47    254.1    255.1       86     0.000     0.000     0.000     0.000       89        0        0        0        0        5        9     6.273       86     26.5    1.662     0.41        2        9     1996  Essexvalley_GroundnutGDDCRO_ClayLoam_S1_rainfed.PRM
   Tot(8)       31        5     1997    230.4    551.6   1699.7   363.73      0.0    212.5     17.9     27.8      0.0    166.7       56    245.2    245.4       84     0.000     0.000     0.000     0.000       91        0        0        0        0       10       11     6.177       83     26.5    1.637     0.40        4        9     1997  Essexvalley_GroundnutGDDCRO_ClayLoam_S1_rainfed.PRM
   Tot(9)       31        5     1998    250.1    560.8   1644.9   366.70      0.0    244.8      5.3      0.0      0.0    169.4       53    274.9    271.2       97     0.000     0.000     0.000     0.000       87        0        0        0        0        0        2     6.846       97     26.5    1.814     0.41       30        8     1998  Essexvalley_GroundnutGDDCRO_ClayLoam_S1_rainfed.PRM
  Tot(10)       31        5     1999    307.8    562.1   1683.4   368.38      0.0    302.9      4.9      3.6      0.0    217.8       71    288.5    289.9       99     0.000     0.000     0.000     0.000       90        0        0        0        0        0        1     7.361       99     26.5    1.951     0.39        3        9     1999  Essexvalley_GroundnutGDDCRO_ClayLoam_S1_rainfed.PRM
  Tot(11)       31        5     2000    294.7    578.0   1694.8   369.55      0.0    282.6     12.1      8.9      0.0    169.6       54    293.5    293.0       97     0.000     0.000     0.000     0.000       91        0        0        0        0        2        2     7.387       97     26.5    1.957     0.42        4        9     2000  Essexvalley_GroundnutGDDCRO_ClayLoam_S1_rainfed.PRM
  Tot(12)       31        5     2001    132.9    583.9   1652.8   371.14      0.0    132.8      0.1      0.0      0.0    117.4       35    243.6    246.1       83     0.000     0.000     0.000     0.000       88        0        0        0        0       27       11     6.024       83     26.5    1.596     0.44        1        9     2001  Essexvalley_GroundnutGDDCRO_ClayLoam_S1_rainfed.PRM
  Tot(13)       31        5     2002    247.7    553.0   1690.9   373.28      0.0    218.9     28.8     42.9      0.0    166.3       56    236.1    236.1       81     0.000     0.000     0.000     0.000       91        0        0        0        0       35       13     6.083       80     26.5    1.612     0.40        4        9     2002  Essexvalley_GroundnutGDDCRO_ClayLoam_S1_rainfed.PRM
  Tot(14)       31        5     2003    300.4    565.3   1670.7   375.80      0.0    297.0      3.4      1.3      0.0    219.1       70    279.9    276.5       96     0.000     0.000     0.000     0.000       89        0        0        0        0        2        3     7.200       96     26.5    1.908     0.38        2        9     2003  Essexvalley_GroundnutGDDCRO_ClayLoam_S1_rainfed.PRM
  Tot(15)       31        5     2004    170.1    586.3   1659.0   377.52      0.0    168.9      1.2      0.0      0.0    137.1       42    259.8    263.2       87     0.000     0.000     0.000     0.000       88        0        0        0        0       19        9     6.428       87     26.5    1.703     0.43        1        9     2004  Essexvalley_GroundnutGDDCRO_ClayLoam_S1_rainfed.PRM
  Tot(16)       31        5     2005    605.5    501.0   1687.5   379.80      0.0    460.9    144.6    118.0      0.0    240.4       89    265.5    262.3      100     0.000     0.000     0.000     0.000       90        0        0        0        0        0        0     7.597      100     25.7    1.956     0.39        2        9     2005  Essexvalley_GroundnutGDDCRO_ClayLoam_S1_rainfed.PRM
  Tot(17)       31        5     2006    347.9    545.0   1677.5   381.90      0.0    313.5     34.4     51.9      0.0    187.9       64    281.7    283.3       98     0.000     0.000     0.000     0.000       89        0        0        0        0        2        2     7.423       98     26.5    1.967     0.42        2        9     2006  Essexvalley_GroundnutGDDCRO_ClayLoam_S1_rainfed.PRM
  Tot(18)       31        5     2007    256.4    551.0   1676.2   383.79      0.0    249.4      7.0      0.0      0.0    158.6       52    281.9    279.9      100     0.000     0.000     0.000     0.000       90        0        0        0        0       17        0     7.607      100     26.5    2.016     0.46        2        9     2007  Essexvalley_GroundnutGDDCRO_ClayLoam_S1_rainfed.PRM
  Tot(19)       31        5     2008    423.7    540.8   1670.5   385.60      0.0    354.5     69.2      4.9      0.0    172.4       58    278.6    280.6      100     0.000     0.000     0.000     0.000       89        0        0        0        0        0        0     7.637      100     26.1    1.995     0.44        2        9     2008  Essexvalley_GroundnutGDDCRO_ClayLoam_S1_rainfed.PRM
  Tot(20)       31        5     2009    234.8    552.0   1686.5   387.43      0.0    231.5      3.3      1.8      0.0    198.6       68    257.1    257.2       87     0.000     0.000     0.000     0.000       90        0        0        0        0        4        9     6.710       87     26.5    1.778     0.39        3        9     2009  Essexvalley_GroundnutGDDCRO_ClayLoam_S1_rainfed.PRM
  Tot(21)       31        5     2010    506.9    500.0   1670.7   389.90      0.0    462.9     44.0     49.4      0.0    208.9       75    256.4    254.9      100     0.000     0.000     0.000     0.000       89        0        0        0        0        0        0     7.667      100     25.0    1.917     0.41        1        9     2010  Essexvalley_GroundnutGDDCRO_ClayLoam_S1_rainfed.PRM
  Tot(22)       31        5     2011    523.5    514.8   1689.9   391.65      0.0    458.9     64.6     78.7      0.0    209.5       76    273.9    274.2      100     0.000     0.000     0.000     0.000       90        0        0        0        0        0        0     7.844      100     25.0    1.961     0.41        3        9     2011  Essexvalley_GroundnutGDDCRO_ClayLoam_S1_rainfed.PRM
  Tot(23)       31        5     2012    345.6    550.4   1672.9   393.85      0.0    321.0     24.6     10.2      0.0    191.6       63    280.9    280.3      100     0.000     0.000     0.000     0.000       89        0        0        0        0        3        0     7.787      100     26.5    2.064     0.44        2        9     2012  Essexvalley_GroundnutGDDCRO_ClayLoam_S1_rainfed.PRM
  Tot(24)       31        5     2013    283.8    532.9   1669.5   396.52      0.0    282.2      1.6      1.1      0.0    188.0       65    277.4    278.0      100     0.000     0.000     0.000     0.000       90        0        0        0        0        0        0     7.829      100     26.5    2.075     0.45        2        9     2013  Essexvalley_GroundnutGDDCRO_ClayLoam_S1_rainfed.PRM
  Tot(25)       31        5     2014    215.7    548.1   1670.9   398.65      0.0    211.0      4.7      0.0      0.0    152.5       50    253.0    252.7       90     0.000     0.000     0.000     0.000       89        0        0        0        0       33        7     6.975       89     26.5    1.848     0.46        2        9     2014  Essexvalley_GroundnutGDDCRO_ClayLoam_S1_rainfed.PRM
  Tot(26)       31        5     2015    200.0    547.2   1670.8   400.83      0.0    180.6     19.4     20.4      0.0    163.1       55    227.6    231.1       79     0.000     0.000     0.000     0.000       89        0        0        0        0        8       14     6.210       79     26.5    1.646     0.42        2        9     2015  Essexvalley_GroundnutGDDCRO_ClayLoam_S1_rainfed.PRM
  Tot(27)       31        5     2016    302.8    528.6   1652.5   404.21      0.0    285.3     17.5     18.2      0.0    182.3       62    268.3    265.4       99     0.000     0.000     0.000     0.000       88        0        0        0        0        5        1     7.634       99     26.5    2.023     0.45       31        8     2016  Essexvalley_GroundnutGDDCRO_ClayLoam_S1_rainfed.PRM
  Tot(28)       31        5     2017    297.3    525.7   1679.6   406.21      0.0    252.1     45.2     54.4      0.0    172.1       60    249.6    252.0       91     0.000     0.000     0.000     0.000       89        0        0        0        0        3        6     7.245       91     26.5    1.920     0.46        2        9     2017  Essexvalley_GroundnutGDDCRO_ClayLoam_S1_rainfed.PRM
  Tot(29)       31        5     2018    146.1    548.2   1684.2   408.21      0.0    145.8      0.3      0.0      0.0    156.2       53    219.1    219.7       77     0.000     0.000     0.000     0.000       90        0        0        0        0       36       16     6.116       76     26.5    1.621     0.43        3        9     2018  Essexvalley_GroundnutGDDCRO_ClayLoam_S1_rainfed.PRM
