AquaCrop 6.0 (March 2017) - Output created on (date) : 3/5/2021   at (time) : 4:00:26 PM

    RunNr     Day1   Month1    Year1     Rain      ETo       GD     CO2      Irri   Infilt   Runoff    Drain   Upflow        E     E/Ex       Tr      TrW   Tr/Trx    SaltIn   SaltOut    SaltUp  SaltProf     Cycle   SaltStr  FertStr  WeedStr  TempStr   ExpStr   StoStr  BioMass  Brelative   HI     Yield     WPet     DayN   MonthN    YearN
                                           mm       mm    °C.day    ppm        mm       mm       mm       mm       mm       mm        %       mm       mm        %    ton/ha    ton/ha    ton/ha    ton/ha      days       %        %        %        %        %        %    ton/ha        %       %    ton/ha    kg/m3
   Tot(1)        1        5     1990    210.7    602.1   1297.2   354.39      0.0    205.8      4.9      0.0      0.0     92.7       46    341.1    341.1       77     0.000     0.000     0.000     0.000       92        0        0        0        0       18       17    11.056       76     49.4    5.460     1.27        7        8     1990  Essexvalley_SweetPotatoGDDCRO_ClayLoam_S1_rainfed.PRM
   Tot(2)        1        5     1991    176.2    582.1   1293.5   355.61      0.0    171.0      5.2      8.1      0.0    121.2       67    278.9    277.9       63     0.000     0.000     0.000     0.000       95        0        0        0        0       51       29     9.190       62     41.0    3.769     0.94        8        8     1991  Essexvalley_SweetPotatoGDDCRO_ClayLoam_S1_rainfed.PRM
   Tot(3)        1        5     1992    177.2    598.3   1302.1   356.45      0.0    176.5      0.7      0.0      0.0    100.9       52    301.9    303.0       68     0.000     0.000     0.000     0.000       93        0        0        0        0       26       24     9.907       68     44.3    4.388     1.10        8        8     1992  Essexvalley_SweetPotatoGDDCRO_ClayLoam_S1_rainfed.PRM
   Tot(4)        1        5     1993    326.2    574.6   1300.5   356.10      0.0    305.2     21.0     24.2      0.0    158.6       95    353.8    353.8       79     0.000     0.000     0.000     0.000       95        0        0        0        0        0       16    11.853       80     48.1    5.702     1.11       10        8     1993  Essexvalley_SweetPotatoGDDCRO_ClayLoam_S1_rainfed.PRM
   Tot(5)        1        5     1994    132.3    646.9   1302.6   358.83      0.0    132.3      0.0      0.0      0.0    122.8       55    243.9    243.9       53     0.000     0.000     0.000     0.000       92        0        0        0        0       60       37     7.164       49     36.6    2.620     0.72        6        8     1994  Essexvalley_SweetPotatoGDDCRO_ClayLoam_S1_rainfed.PRM
   Tot(6)        1        5     1995    219.3    592.7   1302.0   360.82      0.0    217.6      1.7      2.1      0.0     96.7       48    335.2    335.2       77     0.000     0.000     0.000     0.000       90        0        0        0        0       50       18    10.773       75     49.7    5.359     1.25        5        8     1995  Essexvalley_SweetPotatoGDDCRO_ClayLoam_S1_rainfed.PRM
   Tot(7)        1        5     1996    214.7    606.4   1295.4   362.61      0.0    213.1      1.6      0.0      0.0    129.8       62    304.4    304.4       69     0.000     0.000     0.000     0.000       92        0        0        0        0       55       24     9.678       66     44.5    4.304     1.00        7        8     1996  Essexvalley_SweetPotatoGDDCRO_ClayLoam_S1_rainfed.PRM
   Tot(8)        1        5     1997    231.2    603.3   1304.5   363.73      0.0    212.1     19.1      0.0      0.0     64.1       31    372.3    372.3       85     0.000     0.000     0.000     0.000       94        0        0        0        0        4       12    12.862       85     51.1    6.570     1.51        8        8     1997  Essexvalley_SweetPotatoGDDCRO_ClayLoam_S1_rainfed.PRM
   Tot(9)        1        5     1998    227.0    595.1   1307.4   366.70      0.0    221.4      5.6      0.0      0.0     85.0       41    351.2    351.2       81     0.000     0.000     0.000     0.000       88        0        0        0        0       40       15    11.270       79     52.3    5.898     1.36        3        8     1998  Essexvalley_SweetPotatoGDDCRO_ClayLoam_S1_rainfed.PRM
  Tot(10)        1        5     1999    347.5    590.4   1297.1   368.38      0.0    340.1      7.4      3.2      0.0    128.5       68    416.9    416.9       94     0.000     0.000     0.000     0.000       93        0        0        0        0        2        5    14.175       94     52.4    7.428     1.37        8        8     1999  Essexvalley_SweetPotatoGDDCRO_ClayLoam_S1_rainfed.PRM
  Tot(11)        1        5     2000    238.2    610.5   1296.9   369.55      0.0    237.8      0.4      0.0      0.0     94.0       46    353.3    353.3       78     0.000     0.000     0.000     0.000       93        0        0        0        0        7       17    11.808       77     49.7    5.863     1.32        8        8     2000  Essexvalley_SweetPotatoGDDCRO_ClayLoam_S1_rainfed.PRM
  Tot(12)        1        5     2001    249.4    607.1   1306.1   371.14      0.0    229.5     19.9     21.6      0.0    166.4       81    265.4    265.4       61     0.000     0.000     0.000     0.000       93        0        0        0        0       56       31     8.635       57     40.8    3.524     0.82        8        8     2001  Essexvalley_SweetPotatoGDDCRO_ClayLoam_S1_rainfed.PRM
  Tot(13)        1        5     2002    418.8    573.9   1306.7   373.28      0.0    323.7     95.1    116.8      0.0     85.0       46    349.2    349.2       81     0.000     0.000     0.000     0.000       96        0        0        0        0        2       14    12.965       82     48.8    6.329     1.46       10        8     2002  Essexvalley_SweetPotatoGDDCRO_ClayLoam_S1_rainfed.PRM
  Tot(14)        1        5     2003    325.4    603.4   1304.9   375.80      0.0    310.1     15.3      3.5      0.0     95.0       48    421.1    421.1       93     0.000     0.000     0.000     0.000       93        0        0        0        0        3        5    14.404       93     52.2    7.524     1.46        7        8     2003  Essexvalley_SweetPotatoGDDCRO_ClayLoam_S1_rainfed.PRM
  Tot(15)        1        5     2004    158.5    612.1   1301.2   377.52      0.0    158.5      0.0      0.0      0.0    109.1       51    275.8    275.8       64     0.000     0.000     0.000     0.000       92        0        0        0        0       57       28     9.172       61     42.0    3.856     1.01        6        8     2004  Essexvalley_SweetPotatoGDDCRO_ClayLoam_S1_rainfed.PRM
  Tot(16)        1        5     2005    680.1    528.8   1300.6   379.80      0.0    511.1    169.0     66.7      0.0    140.0       82    396.6    396.6      100     0.000     0.000     0.000     0.000       92        0        0        0        0        1        0    15.419      100     53.8    8.297     1.55        6        8     2005  Essexvalley_SweetPotatoGDDCRO_ClayLoam_S1_rainfed.PRM
  Tot(17)        1        5     2006    327.1    580.7   1300.1   381.90      0.0    299.2     27.9      0.0      0.0     84.7       43    404.7    404.7       95     0.000     0.000     0.000     0.000       91        0        0        0        0        2        4    14.530       94     54.3    7.886     1.62        6        8     2006  Essexvalley_SweetPotatoGDDCRO_ClayLoam_S1_rainfed.PRM
  Tot(18)        1        5     2007    343.9    565.8   1303.7   383.79      0.0    309.2     34.7     37.9      0.0    135.9       85    354.2    354.2       80     0.000     0.000     0.000     0.000       92        0        0        0        0        0       16    12.523       81     48.2    6.035     1.24        6        8     2007  Essexvalley_SweetPotatoGDDCRO_ClayLoam_S1_rainfed.PRM
  Tot(19)        1        5     2008    267.1    582.5   1301.2   385.60      0.0    257.2      9.9      0.0      0.0     80.9       43    382.5    382.5       88     0.000     0.000     0.000     0.000       93        0        0        0        0        2        9    13.923       89     51.3    7.146     1.55        7        8     2008  Essexvalley_SweetPotatoGDDCRO_ClayLoam_S1_rainfed.PRM
  Tot(20)        1        5     2009    307.5    572.6   1301.3   387.43      0.0    294.7     12.8     11.6      0.0    129.2       70    380.2    380.2       89     0.000     0.000     0.000     0.000       94        0        0        0        0        1        8    14.222       90     50.9    7.243     1.42        9        8     2009  Essexvalley_SweetPotatoGDDCRO_ClayLoam_S1_rainfed.PRM
  Tot(21)        1        5     2010    559.2    527.0   1305.6   389.90      0.0    473.8     85.4     20.2      0.0    104.9       60    390.9    390.9      100     0.000     0.000     0.000     0.000       91        0        0        0        0        1       -0    15.663      100     53.8    8.428     1.71        5        8     2010  Essexvalley_SweetPotatoGDDCRO_ClayLoam_S1_rainfed.PRM
  Tot(22)        1        5     2011    477.6    552.7   1304.3   391.65      0.0    420.5     57.1     47.0      0.0     88.9       47    403.3    403.3      100     0.000     0.000     0.000     0.000       94        0        0        0        0        2       -0    16.050      100     53.8    8.634     1.76        8        8     2011  Essexvalley_SweetPotatoGDDCRO_ClayLoam_S1_rainfed.PRM
  Tot(23)        1        5     2012    329.9    574.9   1298.5   393.85      0.0    309.4     20.5      0.3      0.0    109.9       60    379.5    379.5       88     0.000     0.000     0.000     0.000       91        0        0        0        0        9       10    13.694       88     50.5    6.913     1.42        6        8     2012  Essexvalley_SweetPotatoGDDCRO_ClayLoam_S1_rainfed.PRM
  Tot(24)        1        5     2013    250.8    566.6   1301.4   396.52      0.0    250.1      0.7      0.0      0.0    103.3       56    371.6    371.6       88     0.000     0.000     0.000     0.000       92        0        0        0        0        3        9    14.186       89     50.8    7.203     1.52        7        8     2013  Essexvalley_SweetPotatoGDDCRO_ClayLoam_S1_rainfed.PRM
  Tot(25)        1        5     2014    220.5    577.1   1301.6   398.65      0.0    214.0      6.5      6.4      0.0    129.4       69    305.3    305.3       72     0.000     0.000     0.000     0.000       92        0        0        0        0       13       22    11.406       71     45.1    5.146     1.19        7        8     2014  Essexvalley_SweetPotatoGDDCRO_ClayLoam_S1_rainfed.PRM
  Tot(26)        1        5     2015    194.5    575.8   1303.9   400.83      0.0    188.2      6.3      0.0      0.0     84.2       44    332.6    332.6       79     0.000     0.000     0.000     0.000       93        0        0        0        0        3       16    12.815       79     48.4    6.199     1.49        7        8     2015  Essexvalley_SweetPotatoGDDCRO_ClayLoam_S1_rainfed.PRM
  Tot(27)        1        5     2016    298.6    560.6   1303.1   404.21      0.0    293.1      5.5      0.0      0.0    110.0       62    376.1    376.1       89     0.000     0.000     0.000     0.000       90        0        0        0        0        0        8    14.229       90     51.4    7.312     1.51        4        8     2016  Essexvalley_SweetPotatoGDDCRO_ClayLoam_S1_rainfed.PRM
  Tot(28)        1        5     2017    450.2    535.5   1307.1   406.21      0.0    341.8    108.4     52.0      0.0    110.2       67    378.7    378.7       93     0.000     0.000     0.000     0.000       92        0        0        0        0       14        5    15.105       93     52.4    7.912     1.63        7        8     2017  Essexvalley_SweetPotatoGDDCRO_ClayLoam_S1_rainfed.PRM
  Tot(29)        1        5     2018    269.8    550.9   1302.7   408.21      0.0    252.4     17.4     21.3      0.0    138.7       82    320.8    320.8       77     0.000     0.000     0.000     0.000       94        0        0        0        0        0       17    12.878       78     47.4    6.107     1.33        9        8     2018  Essexvalley_SweetPotatoGDDCRO_ClayLoam_S1_rainfed.PRM
