AquaCrop 6.0 (March 2017) - Output created on (date) : 3/5/2021   at (time) : 4:02:39 PM

    RunNr     Day1   Month1    Year1     Rain      ETo       GD     CO2      Irri   Infilt   Runoff    Drain   Upflow        E     E/Ex       Tr      TrW   Tr/Trx    SaltIn   SaltOut    SaltUp  SaltProf     Cycle   SaltStr  FertStr  WeedStr  TempStr   ExpStr   StoStr  BioMass  Brelative   HI     Yield     WPet     DayN   MonthN    YearN
                                           mm       mm    °C.day    ppm        mm       mm       mm       mm       mm       mm        %       mm       mm        %    ton/ha    ton/ha    ton/ha    ton/ha      days       %        %        %        %        %        %    ton/ha        %       %    ton/ha    kg/m3
   Tot(1)        1        5     1990    210.7    602.1   1297.2   354.39    371.4    207.0      3.7     19.4      0.0    130.8       67    452.9    452.9      100     0.000     0.000     0.000     0.000       92        0        0        0        0        0        0    14.471      100     53.7    7.764     1.34        7        8     1990  Essexvalley_SweetPotatoGDDCRO_Loam_S1_riegoIRR.PRM
   Tot(2)        1        5     1991    176.2    582.1   1293.5   355.61    420.6    173.2      3.0     30.8      0.0    126.4       75    460.6    454.1      100     0.000     0.000     0.000     0.000       95        0        0        0        0        0        0    14.994      100     53.6    8.044     1.37        8        8     1991  Essexvalley_SweetPotatoGDDCRO_Loam_S1_riegoIRR.PRM
   Tot(3)        1        5     1992    177.2    598.3   1302.1   356.45    393.3    175.5      1.7     10.3      0.0    128.0       68    455.4    461.9      100     0.000     0.000     0.000     0.000       93        0        0        0        0        0        0    14.656      100     53.6    7.863     1.35        8        8     1992  Essexvalley_SweetPotatoGDDCRO_Loam_S1_riegoIRR.PRM
   Tot(4)        1        5     1993    326.2    574.6   1300.5   356.10    319.9    321.1      5.1     61.3      0.0    156.0       94    450.7    450.7      100     0.000     0.000     0.000     0.000       95        0        0        0        0        0        0    14.837      100     53.8    7.982     1.32       10        8     1993  Essexvalley_SweetPotatoGDDCRO_Loam_S1_riegoIRR.PRM
   Tot(5)        1        5     1994    132.3    646.9   1302.6   358.83    486.4    131.9      0.4      0.0      0.0    137.8       73    508.0    508.0      100     0.000     0.000     0.000     0.000       92        0        0        0        0        0        0    14.702      100     53.8    7.911     1.23        6        8     1994  Essexvalley_SweetPotatoGDDCRO_Loam_S1_riegoIRR.PRM
   Tot(6)        1        5     1995    219.3    592.7   1302.0   360.82    359.4    219.0      0.3      5.5      0.0    144.1       77    451.5    451.5      100     0.000     0.000     0.000     0.000       90        0        0        0        0        0        0    14.418      100     53.8    7.760     1.31        5        8     1995  Essexvalley_SweetPotatoGDDCRO_Loam_S1_riegoIRR.PRM
   Tot(7)        1        5     1996    214.7    606.4   1295.4   362.61    382.2    212.2      2.5     18.4      0.0    136.3       72    463.9    463.9      100     0.000     0.000     0.000     0.000       92        0        0        0        0        0        0    14.632      100     53.7    7.852     1.31        7        8     1996  Essexvalley_SweetPotatoGDDCRO_Loam_S1_riegoIRR.PRM
   Tot(8)        1        5     1997    231.2    603.3   1304.5   363.73    391.3    218.8     12.4     56.2      0.0    131.5       66    448.8    448.8      100     0.000     0.000     0.000     0.000       94        0        0        0        0        0        0    15.340      100     53.8    8.249     1.43        8        8     1997  Essexvalley_SweetPotatoGDDCRO_Loam_S1_riegoIRR.PRM
   Tot(9)        1        5     1998    227.0    595.1   1307.4   366.70    360.4    222.0      5.0     15.9      0.0    146.2       76    446.8    446.8      100     0.000     0.000     0.000     0.000       88        0        0        0        0        0        0    14.300      100     53.8    7.697     1.30        3        8     1998  Essexvalley_SweetPotatoGDDCRO_Loam_S1_riegoIRR.PRM
  Tot(10)        1        5     1999    347.5    590.4   1297.1   368.38    245.0    341.8      5.7     23.9      0.0    141.4       75    446.5    446.5      100     0.000     0.000     0.000     0.000       93        0        0        0        0        0        0    15.135      100     53.8    8.142     1.39        8        8     1999  Essexvalley_SweetPotatoGDDCRO_Loam_S1_riegoIRR.PRM
  Tot(11)        1        5     2000    238.2    610.5   1296.9   369.55    347.8    235.9      2.3      3.2      0.0    136.8       69    458.8    458.8      100     0.000     0.000     0.000     0.000       93        0        0        0        0        0        0    15.237      100     53.6    8.172     1.38        8        8     2000  Essexvalley_SweetPotatoGDDCRO_Loam_S1_riegoIRR.PRM
  Tot(12)        1        5     2001    249.4    607.1   1306.1   371.14    409.4    242.2      7.2     51.2      0.0    156.3       86    470.0    470.0      100     0.000     0.000     0.000     0.000       93        0        0        0        0        0        0    15.186      100     53.8    8.172     1.31        8        8     2001  Essexvalley_SweetPotatoGDDCRO_Loam_S1_riegoIRR.PRM
  Tot(13)        1        5     2002    418.8    573.9   1306.7   373.28    359.8    384.0     34.8    208.8      0.0    127.0       70    435.4    435.4      100     0.000     0.000     0.000     0.000       96        0        0        0        0        0        0    15.946      100     53.8    8.575     1.53       10        8     2002  Essexvalley_SweetPotatoGDDCRO_Loam_S1_riegoIRR.PRM
  Tot(14)        1        5     2003    325.4    603.4   1304.9   375.80    289.4    313.5     11.9     40.9      0.0    133.1       69    455.6    455.6      100     0.000     0.000     0.000     0.000       93        0        0        0        0        0        0    15.554      100     53.8    8.367     1.43        7        8     2003  Essexvalley_SweetPotatoGDDCRO_Loam_S1_riegoIRR.PRM
  Tot(15)        1        5     2004    158.5    612.1   1301.2   377.52    421.5    158.3      0.2      0.0      0.0    135.4       72    468.7    468.7      100     0.000     0.000     0.000     0.000       92        0        0        0        0        0        0    15.346      100     53.7    8.235     1.37        6        8     2004  Essexvalley_SweetPotatoGDDCRO_Loam_S1_riegoIRR.PRM
  Tot(16)        1        5     2005    680.1    528.8   1300.6   379.80    136.2    601.6     78.5    226.6      0.0    141.0       83    397.2    397.2      100     0.000     0.000     0.000     0.000       92        0        0        0        0        0        0    15.440      100     53.8    8.308     1.55        6        8     2005  Essexvalley_SweetPotatoGDDCRO_Loam_S1_riegoIRR.PRM
  Tot(17)        1        5     2006    327.1    580.7   1300.1   381.90    297.5    316.4     10.7     74.7      0.0    126.6       65    429.7    429.7      100     0.000     0.000     0.000     0.000       91        0        0        0        0        0        0    15.399      100     53.8    8.286     1.50        6        8     2006  Essexvalley_SweetPotatoGDDCRO_Loam_S1_riegoIRR.PRM
  Tot(18)        1        5     2007    343.9    565.8   1303.7   383.79    320.8    328.7     15.2     77.4      0.0    145.4       92    447.5    447.5      100     0.000     0.000     0.000     0.000       92        0        0        0        0        0        0    15.605      100     53.8    8.398     1.42        6        8     2007  Essexvalley_SweetPotatoGDDCRO_Loam_S1_riegoIRR.PRM
  Tot(19)        1        5     2008    267.1    582.5   1301.2   385.60    321.3    252.1     15.0     31.3      0.0    128.2       69    439.5    439.5      100     0.000     0.000     0.000     0.000       93        0        0        0        0        0        0    15.862      100     53.8    8.535     1.51        7        8     2008  Essexvalley_SweetPotatoGDDCRO_Loam_S1_riegoIRR.PRM
  Tot(20)        1        5     2009    307.5    572.6   1301.3   387.43    289.0    302.9      4.6     46.1      0.0    141.5       78    430.7    430.7      100     0.000     0.000     0.000     0.000       94        0        0        0        0        0        0    15.913      100     53.8    8.560     1.50        9        8     2009  Essexvalley_SweetPotatoGDDCRO_Loam_S1_riegoIRR.PRM
  Tot(21)        1        5     2010    559.2    527.0   1305.6   389.90    140.0    525.3     33.9    152.7      0.0    139.4       81    392.6    392.6      100     0.000     0.000     0.000     0.000       91        0        0        0        0        0        0    15.735      100     53.8    8.467     1.60        5        8     2010  Essexvalley_SweetPotatoGDDCRO_Loam_S1_riegoIRR.PRM
  Tot(22)        1        5     2011    477.6    552.7   1304.3   391.65    180.7    453.5     24.1    121.0      0.0    131.9       71    406.9    406.9      100     0.000     0.000     0.000     0.000       94        0        0        0        0        0        0    16.199      100     53.8    8.714     1.63        8        8     2011  Essexvalley_SweetPotatoGDDCRO_Loam_S1_riegoIRR.PRM
  Tot(23)        1        5     2012    329.9    574.9   1298.5   393.85    311.1    315.5     14.4     31.5      0.0    143.1       79    436.4    436.4      100     0.000     0.000     0.000     0.000       91        0        0        0        0        0        0    15.681      100     53.7    8.415     1.46        6        8     2012  Essexvalley_SweetPotatoGDDCRO_Loam_S1_riegoIRR.PRM
  Tot(24)        1        5     2013    250.8    566.6   1301.4   396.52    296.2    249.1      1.7      1.0      0.0    147.2       81    423.7    423.7      100     0.000     0.000     0.000     0.000       92        0        0        0        0        0        0    16.026      100     53.8    8.624     1.52        7        8     2013  Essexvalley_SweetPotatoGDDCRO_Loam_S1_riegoIRR.PRM
  Tot(25)        1        5     2014    220.5    577.1   1301.6   398.65    372.1    214.7      5.8     26.0      0.0    146.8       80    434.2    434.2      100     0.000     0.000     0.000     0.000       92        0        0        0        0        0        0    15.964      100     53.8    8.590     1.48        7        8     2014  Essexvalley_SweetPotatoGDDCRO_Loam_S1_riegoIRR.PRM
  Tot(26)        1        5     2015    194.5    575.8   1303.9   400.83    373.4    189.4      5.1     21.8      0.0    137.3       75    430.4    430.4      100     0.000     0.000     0.000     0.000       93        0        0        0        0        0        0    16.364      100     53.8    8.803     1.56        7        8     2015  Essexvalley_SweetPotatoGDDCRO_Loam_S1_riegoIRR.PRM
  Tot(27)        1        5     2016    298.6    560.6   1303.1   404.21    292.2    291.5      7.1     17.4      0.0    147.6       84    422.6    422.6      100     0.000     0.000     0.000     0.000       90        0        0        0        0        0        0    15.930      100     53.8    8.574     1.51        4        8     2016  Essexvalley_SweetPotatoGDDCRO_Loam_S1_riegoIRR.PRM
  Tot(28)        1        5     2017    450.2    535.5   1307.1   406.21    330.5    360.4     89.8    166.0      0.0    130.9       80    408.6    408.6      100     0.000     0.000     0.000     0.000       92        0        0        0        0        0        0    16.203      100     53.8    8.719     1.62        7        8     2017  Essexvalley_SweetPotatoGDDCRO_Loam_S1_riegoIRR.PRM
  Tot(29)        1        5     2018    269.8    550.9   1302.7   408.21    330.4    264.0      5.8     51.5      0.0    149.2       89    420.0    420.0      100     0.000     0.000     0.000     0.000       94        0        0        0        0        0        0    16.543      100     53.8    8.899     1.57        9        8     2018  Essexvalley_SweetPotatoGDDCRO_Loam_S1_riegoIRR.PRM
