AquaCrop 6.0 (March 2017) - Output created on (date) : 3/5/2021   at (time) : 4:11:40 PM

    RunNr     Day1   Month1    Year1     Rain      ETo       GD     CO2      Irri   Infilt   Runoff    Drain   Upflow        E     E/Ex       Tr      TrW   Tr/Trx    SaltIn   SaltOut    SaltUp  SaltProf     Cycle   SaltStr  FertStr  WeedStr  TempStr   ExpStr   StoStr  BioMass  Brelative   HI     Yield     WPet     DayN   MonthN    YearN
                                           mm       mm    °C.day    ppm        mm       mm       mm       mm       mm       mm        %       mm       mm        %    ton/ha    ton/ha    ton/ha    ton/ha      days       %        %        %        %        %        %    ton/ha        %       %    ton/ha    kg/m3
   Tot(1)       31        5     1990    151.9    445.9   1495.8   354.39      0.0    149.9      2.0     22.5      0.0    124.2       37     70.3     70.2       48     0.000     0.000     0.000     0.000       71        0        0        0        0       60       38     2.012       26     40.9    0.823     0.42       11        8     1990  Essexvalley_TomatoGDDCRO_Sand_S1_rainfed.PRM
   Tot(2)       31        5     1991     68.6    442.2   1512.3   355.61      0.0     68.6      0.0      0.0      0.0     78.8       21     55.9     56.0       57     0.000     0.000     0.000     0.000       72        0        0        0        0       66       34     1.655       21     45.8    0.758     0.56       12        8     1991  Essexvalley_TomatoGDDCRO_Sand_S1_rainfed.PRM
   Tot(3)       31        5     1992    114.9    447.5   1520.8   356.45      0.0    114.9      0.0      0.0      0.0    117.8       34     65.2     65.3       50     0.000     0.000     0.000     0.000       72        0        0        0        0       61       42     1.889       24     40.9    0.772     0.42       12        8     1992  Essexvalley_TomatoGDDCRO_Sand_S1_rainfed.PRM
   Tot(4)       31        5     1993    141.7    438.0   1514.6   356.10      0.0    140.8      0.9     16.8      0.0    135.6       38     55.8     55.7       48     0.000     0.000     0.000     0.000       72        0        0        0        0       65       41     1.630       21     43.6    0.711     0.37       12        8     1993  Essexvalley_TomatoGDDCRO_Sand_S1_rainfed.PRM
   Tot(5)       31        5     1994     69.3    491.3   1503.8   358.83      0.0     69.3      0.0      0.0      0.0     85.3       18     41.6     41.4       70     0.000     0.000     0.000     0.000       71        0        0        0        0       75       24     1.073       14     49.8    0.535     0.42       11        8     1994  Essexvalley_TomatoGDDCRO_Sand_S1_rainfed.PRM
   Tot(6)       31        5     1995    202.8    433.2   1489.5   360.82      0.0    202.7      0.1      5.2      0.0    174.2       57     87.3     85.3       52     0.000     0.000     0.000     0.000       70        0        0        0        0       59       34     2.566       33     44.4    1.138     0.44       10        8     1995  Essexvalley_TomatoGDDCRO_Sand_S1_rainfed.PRM
   Tot(7)       31        5     1996    138.2    455.0   1501.7   362.61      0.0    138.2      0.0      0.0      0.0    137.8       38     67.4     69.5       50     0.000     0.000     0.000     0.000       71        0        0        0        0       61       34     1.947       25     44.2    0.860     0.42       11        8     1996  Essexvalley_TomatoGDDCRO_Sand_S1_rainfed.PRM
   Tot(8)       31        5     1997    185.1    423.2   1515.5   363.73      0.0    181.1      4.0     44.0      0.0    141.3       44     62.6     62.6       45     0.000     0.000     0.000     0.000       72        0        0        0        0       61       43     1.932       24     42.3    0.818     0.40       12        8     1997  Essexvalley_TomatoGDDCRO_Sand_S1_rainfed.PRM
   Tot(9)       31        5     1998    179.7    439.9   1480.8   366.70      0.0    179.1      0.6      0.0      0.0    117.5       43    129.6    129.5       62     0.000     0.000     0.000     0.000       69        0        0        0        0       45       24     3.823       49     46.2    1.766     0.71        9        8     1998  Essexvalley_TomatoGDDCRO_Sand_S1_rainfed.PRM
  Tot(10)       31        5     1999    225.2    437.8   1514.1   368.38      0.0    224.1      1.1     11.0      0.0    145.1       62    136.7    136.8       58     0.000     0.000     0.000     0.000       72        0        0        0        0       40       29     4.306       53     43.8    1.885     0.67       12        8     1999  Essexvalley_TomatoGDDCRO_Sand_S1_rainfed.PRM
  Tot(11)       31        5     2000    200.4    440.3   1510.2   369.55      0.0    199.1      1.3     16.6      0.0    149.4       46     96.8     96.4       63     0.000     0.000     0.000     0.000       72        0        0        0        0       59       27     2.925       36     48.5    1.420     0.58       12        8     2000  Essexvalley_TomatoGDDCRO_Sand_S1_rainfed.PRM
  Tot(12)       31        5     2001     87.3    454.7   1496.5   371.14      0.0     87.3      0.0      0.0      0.0     98.2       23     45.6     45.7       71     0.000     0.000     0.000     0.000       71        0        0        0        0       70       22     1.328       17     50.5    0.670     0.47       11        8     2001  Essexvalley_TomatoGDDCRO_Sand_S1_rainfed.PRM
  Tot(13)       31        5     2002    190.0    425.3   1526.1   373.28      0.0    182.3      7.7     69.6      0.0    121.7       34     56.1     56.5       55     0.000     0.000     0.000     0.000       73        0        0        0        0       66       41     1.734       21     46.2    0.802     0.45       13        8     2002  Essexvalley_TomatoGDDCRO_Sand_S1_rainfed.PRM
  Tot(14)       31        5     2003    218.1    443.1   1518.9   375.80      0.0    216.2      1.9     15.0      0.0    159.5       58    106.2    105.6       52     0.000     0.000     0.000     0.000       72        0        0        0        0       50       34     3.331       40     45.2    1.507     0.57       12        8     2003  Essexvalley_TomatoGDDCRO_Sand_S1_rainfed.PRM
  Tot(15)       31        5     2004    134.7    455.4   1504.2   377.52      0.0    134.7      0.0      0.0      0.0    120.7       28     51.5     51.0       67     0.000     0.000     0.000     0.000       71        0        0        0        0       68       24     1.519       19     50.0    0.760     0.44       11        8     2004  Essexvalley_TomatoGDDCRO_Sand_S1_rainfed.PRM
  Tot(16)       31        5     2005    535.3    385.5   1513.9   379.80      0.0    481.5     53.8    222.5      0.0    144.8       80    180.9    181.4       76     0.000     0.000     0.000     0.000       71        0        0        0        0        1       16     6.364       77     51.9    3.306     1.02       11        8     2005  Essexvalley_TomatoGDDCRO_Sand_S1_rainfed.PRM
  Tot(17)       31        5     2006    291.9    419.8   1505.0   381.90      0.0    283.4      8.5     82.0      0.0    162.4       56    100.9    100.5       59     0.000     0.000     0.000     0.000       71        0        0        0        0       51       30     3.203       39     45.9    1.469     0.56       11        8     2006  Essexvalley_TomatoGDDCRO_Sand_S1_rainfed.PRM
  Tot(18)       31        5     2007    170.1    434.3   1506.3   383.79      0.0    168.8      1.3      5.1      0.0    130.7       37     64.8     64.9       53     0.000     0.000     0.000     0.000       71        0        0        0        0       64       37     2.000       24     44.7    0.894     0.46       11        8     2007  Essexvalley_TomatoGDDCRO_Sand_S1_rainfed.PRM
  Tot(19)       31        5     2008    211.8    425.0   1498.6   385.60      0.0    208.6      3.2     12.8      0.0    137.3       48    122.0    118.8       69     0.000     0.000     0.000     0.000       71        0        0        0        0       50       23     3.871       47     48.8    1.890     0.73       11        8     2008  Essexvalley_TomatoGDDCRO_Sand_S1_rainfed.PRM
  Tot(20)       31        5     2009    168.3    422.7   1518.0   387.43      0.0    167.8      0.5     14.8      0.0    132.7       54     90.1     94.1       48     0.000     0.000     0.000     0.000       72        0        0        0        0       50       42     2.960       35     37.5    1.111     0.50       12        8     2009  Essexvalley_TomatoGDDCRO_Sand_S1_rainfed.PRM
  Tot(21)       31        5     2010    403.8    386.7   1515.1   389.90      0.0    394.7      9.1     93.9      0.0    122.2       61    219.5    215.0      100     0.000     0.000     0.000     0.000       71        0        0        0        0        6        0     8.087       96     55.7    4.501     1.32       11        8     2010  Essexvalley_TomatoGDDCRO_Sand_S1_rainfed.PRM
  Tot(22)       31        5     2011    422.0    393.6   1520.3   391.65      0.0    400.7     21.3    123.4      0.0    137.3       71    201.8    202.2       86     0.000     0.000     0.000     0.000       72        0        0        0        0       23        9     7.028       82     52.5    3.693     1.09       12        8     2011  Essexvalley_TomatoGDDCRO_Sand_S1_rainfed.PRM
  Tot(23)       31        5     2012    273.7    424.8   1502.3   393.85      0.0    264.3      9.4     34.3      0.0    142.2       50    101.8    102.8       57     0.000     0.000     0.000     0.000       71        0        0        0        0       55       29     3.429       40     44.5    1.526     0.63       11        8     2012  Essexvalley_TomatoGDDCRO_Sand_S1_rainfed.PRM
  Tot(24)       31        5     2013    176.7    412.7   1499.6   396.52      0.0    176.6      0.1      3.2      0.0    126.0       55    114.6    117.0       55     0.000     0.000     0.000     0.000       71        0        0        0        0       45       32     3.979       47     41.5    1.649     0.69       11        8     2013  Essexvalley_TomatoGDDCRO_Sand_S1_rainfed.PRM
  Tot(25)       31        5     2014    115.4    425.6   1497.5   398.65      0.0    115.4      0.0      0.0      0.0    120.6       36     59.3     59.7       51     0.000     0.000     0.000     0.000       71        0        0        0        0       63       40     1.978       23     42.0    0.832     0.46       11        8     2014  Essexvalley_TomatoGDDCRO_Sand_S1_rainfed.PRM
  Tot(26)       31        5     2015    161.2    415.8   1496.5   400.83      0.0    156.2      5.0     37.1      0.0    129.8       37     54.6     54.7       55     0.000     0.000     0.000     0.000       71        0        0        0        0       66       39     1.861       22     43.7    0.813     0.44       11        8     2015  Essexvalley_TomatoGDDCRO_Sand_S1_rainfed.PRM
  Tot(27)       31        5     2016    224.1    413.5   1493.5   404.21      0.0    219.4      4.7     31.3      0.0    156.9       56     83.6     82.7       54     0.000     0.000     0.000     0.000       70        0        0        0        0       55       35     2.765       33     44.8    1.240     0.52       10        8     2016  Essexvalley_TomatoGDDCRO_Sand_S1_rainfed.PRM
  Tot(28)       31        5     2017    253.8    404.0   1505.8   406.21      0.0    243.2     10.6    103.6      0.0    122.6       47     81.6     82.3       49     0.000     0.000     0.000     0.000       71        0        0        0        0       54       36     2.953       34     41.7    1.232     0.60       11        8     2017  Essexvalley_TomatoGDDCRO_Sand_S1_rainfed.PRM
  Tot(29)       31        5     2018    107.5    415.0   1514.2   408.21      0.0    107.5      0.0      0.7      0.0    113.6       36     60.5     60.8       51     0.000     0.000     0.000     0.000       70        0        0        0        0       61       42     2.165       24     37.1    0.803     0.47       12        8     2018  Essexvalley_TomatoGDDCRO_Sand_S1_rainfed.PRM
