AquaCrop 6.0 (March 2017) - Output created on (date) : 3/5/2021   at (time) : 4:09:15 PM

    RunNr     Day1   Month1    Year1     Rain      ETo       GD     CO2      Irri   Infilt   Runoff    Drain   Upflow        E     E/Ex       Tr      TrW   Tr/Trx    SaltIn   SaltOut    SaltUp  SaltProf     Cycle   SaltStr  FertStr  WeedStr  TempStr   ExpStr   StoStr  BioMass  Brelative   HI     Yield     WPet     DayN   MonthN    YearN
                                           mm       mm    °C.day    ppm        mm       mm       mm       mm       mm       mm        %       mm       mm        %    ton/ha    ton/ha    ton/ha    ton/ha      days       %        %        %        %        %        %    ton/ha        %       %    ton/ha    kg/m3
   Tot(1)        1        5     1990    171.6    444.4   1508.4   354.39    292.2    153.4     18.2      4.5      0.0    187.6       86    268.5    263.4      100     0.000     0.000     0.000     0.000       72        0        0        0        0        0        0     7.922      100     55.7    4.413     0.97       13        7     1990  Essexvalley_TomatoGDDCRO_ClayLoam_S1_riegoIRR.PRM
   Tot(2)        1        5     1991    158.3    429.8   1522.3   355.61    307.8    140.9     17.4     14.8      0.0    178.0       89    270.9    270.9      100     0.000     0.000     0.000     0.000       73        0        0        0        0        0        0     8.077      100     57.5    4.646     1.04       14        7     1991  Essexvalley_TomatoGDDCRO_ClayLoam_S1_riegoIRR.PRM
   Tot(3)        1        5     1992    140.9    441.6   1524.6   356.45    310.9    129.6     11.3      0.4      0.0    182.7       86    271.7    271.2      100     0.000     0.000     0.000     0.000       73        0        0        0        0        0        0     8.068      100     57.5    4.641     1.02       14        7     1992  Essexvalley_TomatoGDDCRO_ClayLoam_S1_riegoIRR.PRM
   Tot(4)        1        5     1993    293.1    412.9   1536.0   356.10    190.6    262.0     31.1     21.2      0.0    180.8       97    264.8    264.9      100     0.000     0.000     0.000     0.000       74        0        0        0        0        0        0     8.184      100     57.5    4.708     1.06       15        7     1993  Essexvalley_TomatoGDDCRO_ClayLoam_S1_riegoIRR.PRM
   Tot(5)        1        5     1994    105.0    485.5   1516.1   358.83    390.3    101.0      4.0      0.0      0.0    198.7       89    307.0    307.0      100     0.000     0.000     0.000     0.000       72        0        0        0        0        0        0     8.025      100     55.7    4.471     0.88       13        7     1994  Essexvalley_TomatoGDDCRO_ClayLoam_S1_riegoIRR.PRM
   Tot(6)        1        5     1995    165.5    446.8   1497.6   360.82    291.8    158.6      6.9      1.0      0.0    188.8       88    275.4    275.7      100     0.000     0.000     0.000     0.000       71        0        0        0        0        0        0     7.913      100     53.9    4.263     0.92       12        7     1995  Essexvalley_TomatoGDDCRO_ClayLoam_S1_riegoIRR.PRM
   Tot(7)        1        5     1996    158.9    453.2   1504.9   362.61    318.4    145.5     13.4      5.5      0.0    188.7       89    284.5    284.5      100     0.000     0.000     0.000     0.000       72        0        0        0        0        0        0     8.059      100     55.7    4.489     0.95       13        7     1996  Essexvalley_TomatoGDDCRO_ClayLoam_S1_riegoIRR.PRM
   Tot(8)        1        5     1997    192.7    451.2   1525.0   363.73    306.2    152.9     39.8     23.9      0.0    186.7       81    263.6    263.9      100     0.000     0.000     0.000     0.000       73        0        0        0        0        0        0     8.259      100     57.5    4.751     1.06       14        7     1997  Essexvalley_TomatoGDDCRO_ClayLoam_S1_riegoIRR.PRM
   Tot(9)        1        5     1998    182.2    453.0   1487.3   366.70    303.7    157.9     24.3      0.0      0.0    192.2       86    274.0    273.6      100     0.000     0.000     0.000     0.000       70        0        0        0        0        0        0     7.869      100     53.7    4.223     0.91       11        7     1998  Essexvalley_TomatoGDDCRO_ClayLoam_S1_riegoIRR.PRM
  Tot(10)        1        5     1999    315.0    437.7   1523.4   368.38    176.1    278.9     36.1      7.5      0.0    190.2       91    268.8    269.8      100     0.000     0.000     0.000     0.000       73        0        0        0        0        0        0     8.349      100     57.5    4.803     1.05       14        7     1999  Essexvalley_TomatoGDDCRO_ClayLoam_S1_riegoIRR.PRM
  Tot(11)        1        5     2000    162.3    464.6   1523.8   369.55    317.4    148.0     14.3      0.0      0.0    196.5       88    283.8    283.0      100     0.000     0.000     0.000     0.000       73        0        0        0        0        0        0     8.373      100     57.5    4.817     1.00       14        7     2000  Essexvalley_TomatoGDDCRO_ClayLoam_S1_riegoIRR.PRM
  Tot(12)        1        5     2001    195.8    456.0   1520.0   371.14    325.9    166.2     29.6     22.7      0.0    192.9       93    291.6    291.7      100     0.000     0.000     0.000     0.000       73        0        0        0        0        0        0     8.394      100     57.5    4.829     1.00       14        7     2001  Essexvalley_TomatoGDDCRO_ClayLoam_S1_riegoIRR.PRM
  Tot(13)        1        5     2002    387.8    420.4   1529.0   373.28    261.2    276.8    111.0    124.0      0.0    177.0       86    252.5    252.9      100     0.000     0.000     0.000     0.000       74        0        0        0        0        0       -0     8.589      100     57.5    4.941     1.15       15        7     2002  Essexvalley_TomatoGDDCRO_ClayLoam_S1_riegoIRR.PRM
  Tot(14)        1        5     2003    268.7    453.8   1513.6   375.80    232.6    230.6     38.1     11.5      0.0    194.6       87    272.2    271.8      100     0.000     0.000     0.000     0.000       72        0        0        0        0        0        0     8.373      100     55.7    4.664     1.00       13        7     2003  Essexvalley_TomatoGDDCRO_ClayLoam_S1_riegoIRR.PRM
  Tot(15)        1        5     2004    108.4    464.3   1514.2   377.52    360.2    105.2      3.2      0.0      0.0    194.6       88    286.0    286.1      100     0.000     0.000     0.000     0.000       72        0        0        0        0        0        0     8.390      100     55.7    4.674     0.97       13        7     2004  Essexvalley_TomatoGDDCRO_ClayLoam_S1_riegoIRR.PRM
  Tot(16)        1        5     2005    602.9    394.8   1524.2   379.80     80.3    431.5    171.4     75.6      0.0    183.8       94    235.9    236.7      100     0.000     0.000     0.000     0.000       72        0        0        0        0        0        0     8.449      100     55.7    4.707     1.12       13        7     2005  Essexvalley_TomatoGDDCRO_ClayLoam_S1_riegoIRR.PRM
  Tot(17)        1        5     2006    237.9    434.4   1497.6   381.90    272.8    196.1     41.8     41.0      0.0    185.3       85    257.3    256.0      100     0.000     0.000     0.000     0.000       71        0        0        0        0        0        0     8.328      100     53.9    4.487     1.01       12        7     2006  Essexvalley_TomatoGDDCRO_ClayLoam_S1_riegoIRR.PRM
  Tot(18)        1        5     2007    295.7    419.7   1518.2   383.79    227.5    241.6     54.1     36.8      0.0    179.7       94    267.4    267.6      100     0.000     0.000     0.000     0.000       72        0        0        0        0        0        0     8.522      100     55.7    4.747     1.06       13        7     2007  Essexvalley_TomatoGDDCRO_ClayLoam_S1_riegoIRR.PRM
  Tot(19)        1        5     2008    159.7    434.4   1507.5   385.60    287.1    145.3     14.4      1.8      0.0    185.5       87    260.3    260.5      100     0.000     0.000     0.000     0.000       72        0        0        0        0        0        0     8.529      100     55.7    4.751     1.07       13        7     2008  Essexvalley_TomatoGDDCRO_ClayLoam_S1_riegoIRR.PRM
  Tot(20)        1        5     2009    294.1    419.4   1537.4   387.43    182.3    260.5     33.6     18.1      0.0    184.4       91    254.7    254.3      100     0.000     0.000     0.000     0.000       74        0        0        0        0        0        0     8.830      100     59.4    5.241     1.19       15        7     2009  Essexvalley_TomatoGDDCRO_ClayLoam_S1_riegoIRR.PRM
  Tot(21)        1        5     2010    408.7    405.8   1510.7   389.90    156.1    313.3     95.4     51.3      0.0    182.5       90    239.0    239.7      100     0.000     0.000     0.000     0.000       71        0        0        0        0        0        0     8.498      100     57.4    4.878     1.16       12        7     2010  Essexvalley_TomatoGDDCRO_ClayLoam_S1_riegoIRR.PRM
  Tot(22)        1        5     2011    379.5    413.3   1526.9   391.65    173.7    299.8     79.7     65.9      0.0    182.3       87    241.0    241.3      100     0.000     0.000     0.000     0.000       73        0        0        0        0        0        0     8.784      100     57.5    5.053     1.19       14        7     2011  Essexvalley_TomatoGDDCRO_ClayLoam_S1_riegoIRR.PRM
  Tot(23)        1        5     2012    241.9    435.9   1513.5   393.85    235.0    210.1     31.8      5.1      0.0    186.7       90    268.2    267.5      100     0.000     0.000     0.000     0.000       72        0        0        0        0        0        0     8.680      100     55.7    4.835     1.06       13        7     2012  Essexvalley_TomatoGDDCRO_ClayLoam_S1_riegoIRR.PRM
  Tot(24)        1        5     2013    230.6    417.0   1509.4   396.52    206.7    214.2     16.4      0.0      0.0    184.2       90    249.1    250.0      100     0.000     0.000     0.000     0.000       72        0        0        0        0        0        0     8.718      100     55.7    4.856     1.12       13        7     2013  Essexvalley_TomatoGDDCRO_ClayLoam_S1_riegoIRR.PRM
  Tot(25)        1        5     2014    189.3    427.2   1508.1   398.65    274.8    166.9     22.4      9.1      0.0    187.7       91    259.9    259.0      100     0.000     0.000     0.000     0.000       72        0        0        0        0        0        0     8.757      100     55.7    4.878     1.09       13        7     2014  Essexvalley_TomatoGDDCRO_ClayLoam_S1_riegoIRR.PRM
  Tot(26)        1        5     2015    163.1    427.8   1509.3   400.83    284.7    143.9     19.2      3.3      0.0    187.8       88    253.5    254.6      100     0.000     0.000     0.000     0.000       72        0        0        0        0        0        0     8.809      100     55.7    4.907     1.11       13        7     2015  Essexvalley_TomatoGDDCRO_ClayLoam_S1_riegoIRR.PRM
  Tot(27)        1        5     2016    229.1    426.5   1505.6   404.21    226.7    205.0     24.1      2.2      0.0    187.7       90    256.6    255.4      100     0.000     0.000     0.000     0.000       71        0        0        0        0        0        0     8.727      100     53.9    4.703     1.06       12        7     2016  Essexvalley_TomatoGDDCRO_ClayLoam_S1_riegoIRR.PRM
  Tot(28)        1        5     2017    405.9    391.0   1512.5   406.21    235.1    231.7    174.2     73.7      0.0    167.1       91    241.8    242.7      100     0.000     0.000     0.000     0.000       72        0        0        0        0        0        0     8.892      100     55.7    4.953     1.21       13        7     2017  Essexvalley_TomatoGDDCRO_ClayLoam_S1_riegoIRR.PRM
  Tot(29)        1        5     2018    244.8    397.3   1520.3   408.21    218.0    213.3     31.5     26.4      0.0    173.4       94    246.4    245.7      100     0.000     0.000     0.000     0.000       73        0        0        0        0        0        0     9.056      100     57.5    5.210     1.24       14        7     2018  Essexvalley_TomatoGDDCRO_ClayLoam_S1_riegoIRR.PRM
