AquaCrop 6.0 (March 2017) - Output created on (date) : 3/5/2021   at (time) : 3:59:01 PM

    RunNr     Day1   Month1    Year1     Rain      ETo       GD     CO2      Irri   Infilt   Runoff    Drain   Upflow        E     E/Ex       Tr      TrW   Tr/Trx    SaltIn   SaltOut    SaltUp  SaltProf     Cycle   SaltStr  FertStr  WeedStr  TempStr   ExpStr   StoStr  BioMass  Brelative   HI     Yield     WPet     DayN   MonthN    YearN
                                           mm       mm    °C.day    ppm        mm       mm       mm       mm       mm       mm        %       mm       mm        %    ton/ha    ton/ha    ton/ha    ton/ha      days       %        %        %        %        %        %    ton/ha        %       %    ton/ha    kg/m3
   Tot(1)        1        5     1990    210.7    602.1   1297.2   354.39    385.5    189.1     21.6      0.0      0.0    153.3       79    452.1    452.1      100     0.000     0.000     0.000     0.000       92        0        0        0        0        1        0    14.442      100     53.9    7.779     1.29        7        8     1990  Essexvalley_SweetPotatoGDDCRO_Clay_S1_riegoIRR.PRM
   Tot(2)        1        5     1991    176.2    582.1   1293.5   355.61    432.3    161.2     15.0     21.1      0.0    142.5       84    460.0    453.5      100     0.000     0.000     0.000     0.000       95        0        0        0        0        0        0    14.972      100     53.6    8.032     1.33        8        8     1991  Essexvalley_SweetPotatoGDDCRO_Clay_S1_riegoIRR.PRM
   Tot(3)        1        5     1992    177.2    598.3   1302.1   356.45    414.6    163.9     13.3      4.1      0.0    150.1       80    455.4    461.9      100     0.000     0.000     0.000     0.000       93        0        0        0        0        0        0    14.656      100     53.6    7.863     1.30        8        8     1992  Essexvalley_SweetPotatoGDDCRO_Clay_S1_riegoIRR.PRM
   Tot(4)        1        5     1993    326.2    574.6   1300.5   356.10    317.0    302.2     24.0     41.2      0.0    160.7       97    450.7    450.7      100     0.000     0.000     0.000     0.000       95        0        0        0        0        0        0    14.837      100     53.8    7.982     1.31       10        8     1993  Essexvalley_SweetPotatoGDDCRO_Clay_S1_riegoIRR.PRM
   Tot(5)        1        5     1994    132.3    646.9   1302.6   358.83    502.0    129.1      3.2      0.3      0.0    157.3       84    507.4    507.4      100     0.000     0.000     0.000     0.000       92        0        0        0        0        0        0    14.684      100     53.8    7.901     1.19        6        8     1994  Essexvalley_SweetPotatoGDDCRO_Clay_S1_riegoIRR.PRM
   Tot(6)        1        5     1995    219.3    592.7   1302.0   360.82    381.5    209.4      9.9      7.2      0.0    161.6       86    451.5    451.5      100     0.000     0.000     0.000     0.000       90        0        0        0        0        0        0    14.418      100     53.8    7.760     1.27        5        8     1995  Essexvalley_SweetPotatoGDDCRO_Clay_S1_riegoIRR.PRM
   Tot(7)        1        5     1996    214.7    606.4   1295.4   362.61    400.0    200.9     13.8     12.5      0.0    155.7       82    463.2    463.2      100     0.000     0.000     0.000     0.000       92        0        0        0        0        0        0    14.610      100     53.7    7.840     1.27        7        8     1996  Essexvalley_SweetPotatoGDDCRO_Clay_S1_riegoIRR.PRM
   Tot(8)        1        5     1997    231.2    603.3   1304.5   363.73    400.0    187.3     43.9     18.9      0.0    157.9       79    443.1    443.1       99     0.000     0.000     0.000     0.000       94        0        0        0        0        0        1    15.129      100     53.8    8.136     1.36        8        8     1997  Essexvalley_SweetPotatoGDDCRO_Clay_S1_riegoIRR.PRM
   Tot(9)        1        5     1998    227.0    595.1   1307.4   366.70    381.2    200.2     26.8      0.0      0.0    167.5       87    446.8    446.8      100     0.000     0.000     0.000     0.000       88        0        0        0        0        0       -0    14.300      100     53.8    7.697     1.26        3        8     1998  Essexvalley_SweetPotatoGDDCRO_Clay_S1_riegoIRR.PRM
  Tot(10)        1        5     1999    347.5    590.4   1297.1   368.38    278.2    310.8     36.7     16.4      0.0    157.9       84    445.8    445.8      100     0.000     0.000     0.000     0.000       93        0        0        0        0        0        0    15.113      100     53.8    8.130     1.35        8        8     1999  Essexvalley_SweetPotatoGDDCRO_Clay_S1_riegoIRR.PRM
  Tot(11)        1        5     2000    238.2    610.5   1296.9   369.55    375.5    216.8     21.4      0.0      0.0    158.9       80    458.0    458.0      100     0.000     0.000     0.000     0.000       93        0        0        0        0        0        0    15.211      100     53.8    8.177     1.33        8        8     2000  Essexvalley_SweetPotatoGDDCRO_Clay_S1_riegoIRR.PRM
  Tot(12)        1        5     2001    249.4    607.1   1306.1   371.14    419.2    220.6     28.8     33.9      0.0    168.0       92    470.0    470.0      100     0.000     0.000     0.000     0.000       93        0        0        0        0        0        0    15.186      100     53.8    8.172     1.29        8        8     2001  Essexvalley_SweetPotatoGDDCRO_Clay_S1_riegoIRR.PRM
  Tot(13)        1        5     2002    418.8    573.9   1306.7   373.28    358.6    307.8    111.0    123.9      0.0    148.0       82    428.4    428.4       98     0.000     0.000     0.000     0.000       96        0        0        0        0        0        1    15.700      100     53.8    8.443     1.47       10        8     2002  Essexvalley_SweetPotatoGDDCRO_Clay_S1_riegoIRR.PRM
  Tot(14)        1        5     2003    325.4    603.4   1304.9   375.80    318.5    276.4     49.0     17.3      0.0    155.6       81    454.8    454.8      100     0.000     0.000     0.000     0.000       93        0        0        0        0        1        0    15.527      100     53.8    8.353     1.37        7        8     2003  Essexvalley_SweetPotatoGDDCRO_Clay_S1_riegoIRR.PRM
  Tot(15)        1        5     2004    158.5    612.1   1301.2   377.52    439.3    154.5      4.0      0.6      0.0    155.5       82    467.9    467.9      100     0.000     0.000     0.000     0.000       92        0        0        0        0        0        0    15.319      100     53.7    8.220     1.32        6        8     2004  Essexvalley_SweetPotatoGDDCRO_Clay_S1_riegoIRR.PRM
  Tot(16)        1        5     2005    680.1    528.8   1300.6   379.80    127.3    461.8    218.3    211.0      0.0    153.5       90    254.1    254.1       64     0.000     0.000     0.000     0.000       92        0        0        0        0        0       31     9.264       61     53.8    4.985     1.23        6        8     2005  Essexvalley_SweetPotatoGDDCRO_Clay_S1_riegoIRR.PRM
  Tot(17)        1        5     2006    327.1    580.7   1300.1   381.90    300.8    268.4     58.7     44.2      0.0    149.8       77    402.3    402.3       94     0.000     0.000     0.000     0.000       91        0        0        0        0        0        6    14.289       93     53.9    7.698     1.40        6        8     2006  Essexvalley_SweetPotatoGDDCRO_Clay_S1_riegoIRR.PRM
  Tot(18)        1        5     2007    343.9    565.8   1303.7   383.79    323.2    293.2     50.7     45.2      0.0    151.0       95    447.5    447.5      100     0.000     0.000     0.000     0.000       92        0        0        0        0        0        0    15.605      100     53.8    8.398     1.41        6        8     2007  Essexvalley_SweetPotatoGDDCRO_Clay_S1_riegoIRR.PRM
  Tot(19)        1        5     2008    267.1    582.5   1301.2   385.60    338.9    217.8     49.3      0.1      0.0    150.7       81    437.6    437.6      100     0.000     0.000     0.000     0.000       93        0        0        0        0        0        0    15.790      100     53.8    8.497     1.45        7        8     2008  Essexvalley_SweetPotatoGDDCRO_Clay_S1_riegoIRR.PRM
  Tot(20)        1        5     2009    307.5    572.6   1301.3   387.43    306.3    278.3     29.2     29.7      0.0    156.9       86    430.7    430.7      100     0.000     0.000     0.000     0.000       94        0        0        0        0        0        0    15.913      100     53.8    8.560     1.46        9        8     2009  Essexvalley_SweetPotatoGDDCRO_Clay_S1_riegoIRR.PRM
  Tot(21)        1        5     2010    559.2    527.0   1305.6   389.90    149.4    435.0    124.2    136.9      0.0    154.3       89    303.9    303.9       77     0.000     0.000     0.000     0.000       91        0        0        0        0        0       19    11.866       76     53.8    6.385     1.40        5        8     2010  Essexvalley_SweetPotatoGDDCRO_Clay_S1_riegoIRR.PRM
  Tot(22)        1        5     2011    477.6    552.7   1304.3   391.65    203.1    371.9    105.7     68.2      0.0    152.8       83    385.7    385.7       95     0.000     0.000     0.000     0.000       94        0        0        0        0        0        5    15.119       95     53.8    8.133     1.52        8        8     2011  Essexvalley_SweetPotatoGDDCRO_Clay_S1_riegoIRR.PRM
  Tot(23)        1        5     2012    329.9    574.9   1298.5   393.85    324.2    270.3     59.6      9.3      0.0    155.7       86    436.4    436.4      100     0.000     0.000     0.000     0.000       91        0        0        0        0        0       -0    15.681      100     53.7    8.415     1.42        6        8     2012  Essexvalley_SweetPotatoGDDCRO_Clay_S1_riegoIRR.PRM
  Tot(24)        1        5     2013    250.8    566.6   1301.4   396.52    322.4    230.5     20.3      1.0      0.0    161.1       88    423.7    423.7      100     0.000     0.000     0.000     0.000       92        0        0        0        0        0        0    16.026      100     53.8    8.624     1.48        7        8     2013  Essexvalley_SweetPotatoGDDCRO_Clay_S1_riegoIRR.PRM
  Tot(25)        1        5     2014    220.5    577.1   1301.6   398.65    385.4    202.2     18.3     19.6      0.0    160.6       88    434.2    434.2      100     0.000     0.000     0.000     0.000       92        0        0        0        0        0        0    15.964      100     53.8    8.590     1.45        7        8     2014  Essexvalley_SweetPotatoGDDCRO_Clay_S1_riegoIRR.PRM
  Tot(26)        1        5     2015    194.5    575.8   1303.9   400.83    372.8    171.4     23.1      2.0      0.0    156.2       85    419.1    419.1       97     0.000     0.000     0.000     0.000       93        0        0        0        0        0        2    15.926       99     53.8    8.567     1.50        7        8     2015  Essexvalley_SweetPotatoGDDCRO_Clay_S1_riegoIRR.PRM
  Tot(27)        1        5     2016    298.6    560.6   1303.1   404.21    304.4    259.9     38.7      1.2      0.0    159.3       90    422.6    422.6      100     0.000     0.000     0.000     0.000       90        0        0        0        0        0        0    15.930      100     53.8    8.574     1.48        4        8     2016  Essexvalley_SweetPotatoGDDCRO_Clay_S1_riegoIRR.PRM
  Tot(28)        1        5     2017    450.2    535.5   1307.1   406.21    330.8    269.1    181.1     69.0      0.0    145.8       90    408.5    408.5      100     0.000     0.000     0.000     0.000       92        0        0        0        0        0       -0    16.201      100     53.8    8.718     1.58        7        8     2017  Essexvalley_SweetPotatoGDDCRO_Clay_S1_riegoIRR.PRM
  Tot(29)        1        5     2018    269.8    550.9   1302.7   408.21    339.1    243.4     26.4     38.1      0.0    156.8       94    420.0    420.0      100     0.000     0.000     0.000     0.000       94        0        0        0        0        0        0    16.543      100     53.8    8.899     1.55        9        8     2018  Essexvalley_SweetPotatoGDDCRO_Clay_S1_riegoIRR.PRM
