AquaCrop 6.0 (March 2017) - Output created on (date) : 3/5/2021   at (time) : 4:12:42 PM

    RunNr     Day1   Month1    Year1     Rain      ETo       GD     CO2      Irri   Infilt   Runoff    Drain   Upflow        E     E/Ex       Tr      TrW   Tr/Trx    SaltIn   SaltOut    SaltUp  SaltProf     Cycle   SaltStr  FertStr  WeedStr  TempStr   ExpStr   StoStr  BioMass  Brelative   HI     Yield     WPet     DayN   MonthN    YearN
                                           mm       mm    °C.day    ppm        mm       mm       mm       mm       mm       mm        %       mm       mm        %    ton/ha    ton/ha    ton/ha    ton/ha      days       %        %        %        %        %        %    ton/ha        %       %    ton/ha    kg/m3
   Tot(1)       31       10     1990    261.6    346.2   1544.5   355.00    189.3    258.1      3.5     85.3      0.0    145.1       94    224.1    220.0      100     0.000     0.000     0.000     0.000       76        0        0        0        0        0        0     8.512      100     59.5    5.067     1.37       16        1     1991  Essexvalley_TomatoGDDCRO_Sand_S2_riegoIRR.PRM
   Tot(2)       31       10     1991    115.1    365.0   1534.8   356.03    284.6    110.6      4.5     40.3      0.0    134.3       78    227.3    226.9      100     0.000     0.000     0.000     0.000       76        0        0        0        0        0        0     8.550      100     57.9    4.951     1.37       16        1     1992  Essexvalley_TomatoGDDCRO_Sand_S2_riegoIRR.PRM
   Tot(3)       31       10     1992     47.0    385.9   1523.3   356.27    316.8     47.0      0.0      0.0      0.0    129.8       72    240.9    241.1      100     0.000     0.000     0.000     0.000       74        0        0        0        0        0        0     8.280      100     57.7    4.775     1.29       14        1     1993  Essexvalley_TomatoGDDCRO_Sand_S2_riegoIRR.PRM
   Tot(4)       31       10     1993    134.9    364.3   1529.0   357.47    246.1    132.4      2.5     26.8      0.0    131.6       74    221.2    221.9      100     0.000     0.000     0.000     0.000       75        0        0        0        0        0        0     8.451      100     57.8    4.884     1.38       15        1     1994  Essexvalley_TomatoGDDCRO_Sand_S2_riegoIRR.PRM
   Tot(5)       31       10     1994    162.4    366.6   1528.6   359.82    270.8    154.5      7.9     56.2      0.0    140.7       85    236.1    236.8      100     0.000     0.000     0.000     0.000       75        0        0        0        0        0        0     8.469      100     57.8    4.894     1.30       15        1     1995  Essexvalley_TomatoGDDCRO_Sand_S2_riegoIRR.PRM
   Tot(6)       31       10     1995     91.3    371.1   1539.8   361.72    266.6     91.3      0.0      0.1      0.0    134.2       77    230.4    228.6      100     0.000     0.000     0.000     0.000       75        0        0        0        0        0        0     8.529      100     57.8    4.929     1.35       15        1     1996  Essexvalley_TomatoGDDCRO_Sand_S2_riegoIRR.PRM
   Tot(7)       31       10     1996    177.9    374.4   1546.1   363.17    288.0    169.3      8.6     81.8      0.0    138.8       84    243.8    244.7      100     0.000     0.000     0.000     0.000       77        0        0        0        0        0        0     8.848      100     59.6    5.274     1.38       17        1     1997  Essexvalley_TomatoGDDCRO_Sand_S2_riegoIRR.PRM
   Tot(8)       31       10     1997    119.4    362.2   1525.4   365.22    243.8    119.1      0.3      2.8      0.0    139.8       83    226.9    226.5      100     0.000     0.000     0.000     0.000       74        0        0        0        0        0        0     8.487      100     56.1    4.757     1.30       14        1     1998  Essexvalley_TomatoGDDCRO_Sand_S2_riegoIRR.PRM
   Tot(9)       31       10     1998    233.9    352.2   1537.6   367.54    202.6    219.9     14.0     65.6      0.0    143.9       87    220.1    220.1      100     0.000     0.000     0.000     0.000       75        0        0        0        0        0        0     8.683      100     57.8    5.018     1.38       15        1     1999  Essexvalley_TomatoGDDCRO_Sand_S2_riegoIRR.PRM
  Tot(10)       31       10     1999    206.5    374.1   1556.8   368.97    265.0    198.5      8.0     93.1      0.0    137.3       84    242.0    246.0      100     0.000     0.000     0.000     0.000       79        0        0        0        0        0        0     9.232      100     61.0    5.631     1.49       20        1     2000  Essexvalley_TomatoGDDCRO_Sand_S2_riegoIRR.PRM
  Tot(11)       31       10     2000    371.0    349.0   1537.4   370.35    173.8    342.7     28.3    188.4      0.0    130.0       74    205.3    201.5      100     0.000     0.000     0.000     0.000       77        0        0        0        0        0        0     8.993      100     57.9    5.207     1.55       17        1     2001  Essexvalley_TomatoGDDCRO_Sand_S2_riegoIRR.PRM
  Tot(12)       31       10     2001    337.2    341.5   1556.4   372.21    159.1    320.9     16.3    135.8      0.0    141.0       89    212.1    215.8      100     0.000     0.000     0.000     0.000       76        0        0        0        0        0        0     8.848      100     59.5    5.267     1.50       17        1     2002  Essexvalley_TomatoGDDCRO_Sand_S2_riegoIRR.PRM
  Tot(13)       31       10     2002    122.2    357.9   1532.2   374.54    234.1    121.0      1.2      8.1      0.0    132.6       78    221.4    217.2      100     0.000     0.000     0.000     0.000       74        0        0        0        0        0        0     8.667      100     57.7    4.998     1.41       14        1     2003  Essexvalley_TomatoGDDCRO_Sand_S2_riegoIRR.PRM
  Tot(14)       31       10     2003    238.7    373.6   1535.2   376.66    203.8    231.9      6.8     61.3      0.0    148.7       85    232.8    233.2      100     0.000     0.000     0.000     0.000       75        0        0        0        0        0        0     8.881      100     57.8    5.132     1.35       15        1     2004  Essexvalley_TomatoGDDCRO_Sand_S2_riegoIRR.PRM
  Tot(15)       31       10     2004    121.9    396.2   1527.0   378.66    263.1    120.9      1.0      5.3      0.0    148.6       76    237.4    237.6      100     0.000     0.000     0.000     0.000       75        0        0        0        0        0        0     8.884      100     57.8    5.134     1.33       15        1     2005  Essexvalley_TomatoGDDCRO_Sand_S2_riegoIRR.PRM
  Tot(16)       31       10     2005    245.8    347.6   1541.8   380.85    184.8    237.2      8.6     74.5      0.0    141.8       85    212.7    212.1      100     0.000     0.000     0.000     0.000       76        0        0        0        0        0        0     9.105      100     59.5    5.420     1.53       16        1     2006  Essexvalley_TomatoGDDCRO_Sand_S2_riegoIRR.PRM
  Tot(17)       31       10     2006    179.3    361.0   1518.4   382.85    249.6    170.0      9.3     60.4      0.0    138.1       83    228.0    227.6      100     0.000     0.000     0.000     0.000       73        0        0        0        0        0        0     8.660      100     55.9    4.840     1.32       13        1     2007  Essexvalley_TomatoGDDCRO_Sand_S2_riegoIRR.PRM
  Tot(18)       31       10     2007    266.1    355.2   1558.8   384.70    236.0    246.9     19.2    125.4      0.0    141.3       89    225.3    229.7      100     0.000     0.000     0.000     0.000       76        0        0        0        0        0        0     9.144      100     61.0    5.578     1.53       17        1     2008  Essexvalley_TomatoGDDCRO_Sand_S2_riegoIRR.PRM
  Tot(19)       31       10     2008    209.2    356.8   1556.0   386.51    257.5    199.4      9.8     94.9      0.0    138.2       87    226.8    226.8      100     0.000     0.000     0.000     0.000       76        0        0        0        0        0        0     9.164      100     59.5    5.455     1.51       17        1     2009  Essexvalley_TomatoGDDCRO_Sand_S2_riegoIRR.PRM
  Tot(20)       31       10     2009    153.9    354.9   1530.1   388.66    247.1    146.5      7.4     52.9      0.0    129.7       77    217.9    213.9      100     0.000     0.000     0.000     0.000       75        0        0        0        0        0        0     9.083      100     57.8    5.249     1.51       15        1     2010  Essexvalley_TomatoGDDCRO_Sand_S2_riegoIRR.PRM
  Tot(21)       31       10     2010    136.5    361.3   1550.6   390.77    251.3    134.0      2.5     34.0      0.0    137.6       82    222.9    226.9      100     0.000     0.000     0.000     0.000       79        0        0        0        0        0        0     9.695      100     59.7    5.793     1.62       20        1     2011  Essexvalley_TomatoGDDCRO_Sand_S2_riegoIRR.PRM
  Tot(22)       31       10     2011     64.1    375.7   1533.7   392.75    301.8     64.1      0.0      1.7      0.0    138.7       78    232.4    228.2      100     0.000     0.000     0.000     0.000       75        0        0        0        0        0        0     9.167      100     57.8    5.298     1.43       15        1     2012  Essexvalley_TomatoGDDCRO_Sand_S2_riegoIRR.PRM
  Tot(23)       31       10     2012     99.3    365.5   1533.0   395.19    276.7     98.6      0.7     15.7      0.0    138.3       82    228.2    228.1      100     0.000     0.000     0.000     0.000       75        0        0        0        0        0        0     9.150      100     59.4    5.439     1.48       15        1     2013  Essexvalley_TomatoGDDCRO_Sand_S2_riegoIRR.PRM
  Tot(24)       31       10     2013    116.2    357.5   1517.0   397.58    257.9    113.8      2.4     16.5      0.0    138.4       84    223.8    223.8      100     0.000     0.000     0.000     0.000       73        0        0        0        0        0        0     8.947      100     55.9    5.000     1.38       13        1     2014  Essexvalley_TomatoGDDCRO_Sand_S2_riegoIRR.PRM
  Tot(25)       31       10     2014    178.0    346.7   1524.9   399.74    213.3    175.1      2.9     46.1      0.0    136.3       83    213.3    213.9      100     0.000     0.000     0.000     0.000       74        0        0        0        0        0        0     9.134      100     57.7    5.267     1.51       14        1     2015  Essexvalley_TomatoGDDCRO_Sand_S2_riegoIRR.PRM
  Tot(26)       31       10     2015    169.6    336.4   1521.2   402.52    195.8    168.4      1.2     21.4      0.0    143.2       90    206.9    207.0      100     0.000     0.000     0.000     0.000       73        0        0        0        0        0        0     9.046      100     55.9    5.055     1.44       13        1     2016  Essexvalley_TomatoGDDCRO_Sand_S2_riegoIRR.PRM
  Tot(27)       31       10     2016    154.4    346.6   1528.1   405.21    231.8    151.6      2.8     37.7      0.0    135.7       85    216.7    215.7      100     0.000     0.000     0.000     0.000       74        0        0        0        0        0        0     9.220      100     57.7    5.317     1.51       14        1     2017  Essexvalley_TomatoGDDCRO_Sand_S2_riegoIRR.PRM
  Tot(28)       31       10     2017    365.7    304.8   1537.0   407.21    133.0    350.5     15.2    154.5      0.0    127.8       91    190.8    192.4      100     0.000     0.000     0.000     0.000       75        0        0        0        0        0        0     9.419      100     57.8    5.443     1.71       15        1     2018  Essexvalley_TomatoGDDCRO_Sand_S2_riegoIRR.PRM
  Tot(29)       31       10     2018     40.5    356.1   1527.7   409.21    295.2     40.5      0.0      0.0      0.0    122.0       73    220.8    220.2      100     0.000     0.000     0.000     0.000       74        0        0        0        0        0        0     9.298      100     57.7    5.361     1.56       14        1     2019  Essexvalley_TomatoGDDCRO_Sand_S2_riegoIRR.PRM
