AquaCrop 6.0 (March 2017) - Output created on (date) : 3/5/2021   at (time) : 3:58:32 PM

    RunNr     Day1   Month1    Year1     Rain      ETo       GD     CO2      Irri   Infilt   Runoff    Drain   Upflow        E     E/Ex       Tr      TrW   Tr/Trx    SaltIn   SaltOut    SaltUp  SaltProf     Cycle   SaltStr  FertStr  WeedStr  TempStr   ExpStr   StoStr  BioMass  Brelative   HI     Yield     WPet     DayN   MonthN    YearN
                                           mm       mm    °C.day    ppm        mm       mm       mm       mm       mm       mm        %       mm       mm        %    ton/ha    ton/ha    ton/ha    ton/ha      days       %        %        %        %        %        %    ton/ha        %       %    ton/ha    kg/m3
   Tot(1)        1        5     1990    210.7    602.1   1297.2   354.39      0.0    205.3      5.4      0.0      0.0    101.7       49    330.3    330.3       75     0.000     0.000     0.000     0.000       92        0        0        0        0       21       18    10.719       74     50.6    5.422     1.26        7        8     1990  Essexvalley_SweetPotatoGDDCRO_Clay_S1_rainfed.PRM
   Tot(2)        1        5     1991    176.2    582.1   1293.5   355.61      0.0    171.6      4.6     10.1      0.0    134.0       72    248.1    247.4       57     0.000     0.000     0.000     0.000       95        0        0        0        0       53       37     8.171       55     41.5    3.394     0.89        8        8     1991  Essexvalley_SweetPotatoGDDCRO_Clay_S1_rainfed.PRM
   Tot(3)        1        5     1992    177.2    598.3   1302.1   356.45      0.0    175.9      1.3      0.0      0.0    110.2       55    279.9    280.6       64     0.000     0.000     0.000     0.000       93        0        0        0        0       29       27     9.219       63     44.6    4.116     1.06        8        8     1992  Essexvalley_SweetPotatoGDDCRO_Clay_S1_rainfed.PRM
   Tot(4)        1        5     1993    326.2    574.6   1300.5   356.10      0.0    310.2     16.0     43.0      0.0    158.9       95    314.7    314.7       70     0.000     0.000     0.000     0.000       95        0        0        0        0        0       33    10.313       70     49.6    5.113     1.08       10        8     1993  Essexvalley_SweetPotatoGDDCRO_Clay_S1_rainfed.PRM
   Tot(5)        1        5     1994    132.3    646.9   1302.6   358.83      0.0    132.1      0.2      0.4      0.0    143.2       57    209.4    209.4       49     0.000     0.000     0.000     0.000       92        0        0        0        0       63       41     6.153       42     35.4    2.181     0.62        6        8     1994  Essexvalley_SweetPotatoGDDCRO_Clay_S1_rainfed.PRM
   Tot(6)        1        5     1995    219.3    592.7   1302.0   360.82      0.0    217.9      1.4      7.8      0.0    107.0       50    309.1    309.1       73     0.000     0.000     0.000     0.000       90        0        0        0        0       55       20     9.954       69     49.9    4.965     1.20        5        8     1995  Essexvalley_SweetPotatoGDDCRO_Clay_S1_rainfed.PRM
   Tot(7)        1        5     1996    214.7    606.4   1295.4   362.61      0.0    213.3      1.4      0.5      0.0    144.3       65    277.5    277.5       65     0.000     0.000     0.000     0.000       92        0        0        0        0       58       29     8.834       60     45.9    4.056     0.97        7        8     1996  Essexvalley_SweetPotatoGDDCRO_Clay_S1_rainfed.PRM
   Tot(8)        1        5     1997    231.2    603.3   1304.5   363.73      0.0    210.9     20.3     22.3      0.0     73.7       34    303.2    303.2       70     0.000     0.000     0.000     0.000       94        0        0        0        0        8       24    10.166       67     55.3    5.618     1.50        8        8     1997  Essexvalley_SweetPotatoGDDCRO_Clay_S1_rainfed.PRM
   Tot(9)        1        5     1998    227.0    595.1   1307.4   366.70      0.0    221.1      5.9      0.0      0.0    100.1       46    340.1    340.1       81     0.000     0.000     0.000     0.000       88        0        0        0        0       41       15    10.964       77     54.5    5.971     1.37        3        8     1998  Essexvalley_SweetPotatoGDDCRO_Clay_S1_rainfed.PRM
  Tot(10)        1        5     1999    347.5    590.4   1297.1   368.38      0.0    334.2     13.3      8.5      0.0    137.5       72    396.7    396.7       90     0.000     0.000     0.000     0.000       93        0        0        0        0        3       11    13.525       89     51.5    6.965     1.31        8        8     1999  Essexvalley_SweetPotatoGDDCRO_Clay_S1_rainfed.PRM
  Tot(11)        1        5     2000    238.2    610.5   1296.9   369.55      0.0    237.2      1.0      0.0      0.0    104.3       49    331.6    331.6       75     0.000     0.000     0.000     0.000       93        0        0        0        0       35       19    11.091       73     49.4    5.476     1.26        8        8     2000  Essexvalley_SweetPotatoGDDCRO_Clay_S1_rainfed.PRM
  Tot(12)        1        5     2001    249.4    607.1   1306.1   371.14      0.0    232.9     16.5     30.5      0.0    181.3       83    227.1    227.1       54     0.000     0.000     0.000     0.000       93        0        0        0        0       60       44     7.383       49     40.5    2.989     0.74        8        8     2001  Essexvalley_SweetPotatoGDDCRO_Clay_S1_rainfed.PRM
  Tot(13)        1        5     2002    418.8    573.9   1306.7   373.28      0.0    319.2     99.6    174.1      0.0     95.5       50    231.0    231.0       54     0.000     0.000     0.000     0.000       96        0        0        0        0        5       44     7.895       50     48.4    3.819     1.17       10        8     2002  Essexvalley_SweetPotatoGDDCRO_Clay_S1_rainfed.PRM
  Tot(14)        1        5     2003    325.4    603.4   1304.9   375.80      0.0    309.4     16.0      8.4      0.0    106.9       52    387.1    387.1       87     0.000     0.000     0.000     0.000       93        0        0        0        0        5       12    13.228       86     52.3    6.924     1.41        7        8     2003  Essexvalley_SweetPotatoGDDCRO_Clay_S1_rainfed.PRM
  Tot(15)        1        5     2004    158.5    612.1   1301.2   377.52      0.0    158.5      0.0      0.8      0.0    128.9       54    243.5    243.5       59     0.000     0.000     0.000     0.000       92        0        0        0        0       61       31     8.122       54     42.5    3.454     0.93        6        8     2004  Essexvalley_SweetPotatoGDDCRO_Clay_S1_rainfed.PRM
  Tot(16)        1        5     2005    680.1    528.8   1300.6   379.80      0.0    478.8    201.3    233.9      0.0    147.4       86    115.7    115.7       29     0.000     0.000     0.000     0.000       92        0        0        0        0        1       64     4.245       28     56.2    2.384     0.91        6        8     2005  Essexvalley_SweetPotatoGDDCRO_Clay_S1_rainfed.PRM
  Tot(17)        1        5     2006    327.1    580.7   1300.1   381.90      0.0    294.3     32.8     40.3      0.0     91.9       45    184.1    184.1       44     0.000     0.000     0.000     0.000       91        0        0        0        0        5       43     6.555       43     56.5    3.704     1.36        6        8     2006  Essexvalley_SweetPotatoGDDCRO_Clay_S1_rainfed.PRM
  Tot(18)        1        5     2007    343.9    565.8   1303.7   383.79      0.0    303.2     40.7     94.7      0.0    137.9       86    240.0    240.0       54     0.000     0.000     0.000     0.000       92        0        0        0        0        0       44     8.047       52     50.5    4.065     1.08        6        8     2007  Essexvalley_SweetPotatoGDDCRO_Clay_S1_rainfed.PRM
  Tot(19)        1        5     2008    267.1    582.5   1301.2   385.60      0.0    251.6     15.5      0.2      0.0     90.6       46    358.6    358.6       84     0.000     0.000     0.000     0.000       93        0        0        0        0        5       12    12.992       83     55.0    7.139     1.60        7        8     2008  Essexvalley_SweetPotatoGDDCRO_Clay_S1_rainfed.PRM
  Tot(20)        1        5     2009    307.5    572.6   1301.3   387.43      0.0    288.8     18.7     65.4      0.0    138.1       74    207.9    207.9       49     0.000     0.000     0.000     0.000       94        0        0        0        0        2       47     7.593       48     53.8    4.085     1.18        9        8     2009  Essexvalley_SweetPotatoGDDCRO_Clay_S1_rainfed.PRM
  Tot(21)        1        5     2010    559.2    527.0   1305.6   389.90      0.0    452.3    106.9    263.8      0.0    112.4       63     63.6     63.6       16     0.000     0.000     0.000     0.000       91        0        0        0        0        3       67     2.383       15     53.8    1.282     0.74        5        8     2010  Essexvalley_SweetPotatoGDDCRO_Clay_S1_rainfed.PRM
  Tot(22)        1        5     2011    477.6    552.7   1304.3   391.65      0.0    386.0     91.6    220.7      0.0     99.0       51     61.5     61.5       15     0.000     0.000     0.000     0.000       94        0        0        0        0        5       65     2.524       16     55.7    1.405     0.89        8        8     2011  Essexvalley_SweetPotatoGDDCRO_Clay_S1_rainfed.PRM
  Tot(23)        1        5     2012    329.9    574.9   1298.5   393.85      0.0    307.6     22.3      5.5      0.0    114.3       60    361.3    361.3       85     0.000     0.000     0.000     0.000       91        0        0        0        0       14       12    13.046       83     53.1    6.930     1.46        6        8     2012  Essexvalley_SweetPotatoGDDCRO_Clay_S1_rainfed.PRM
  Tot(24)        1        5     2013    250.8    566.6   1301.4   396.52      0.0    247.1      3.7      1.6      0.0    109.5       59    359.4    359.4       86     0.000     0.000     0.000     0.000       92        0        0        0        0        6       11    13.717       86     50.2    6.885     1.47        7        8     2013  Essexvalley_SweetPotatoGDDCRO_Clay_S1_rainfed.PRM
  Tot(25)        1        5     2014    220.5    577.1   1301.6   398.65      0.0    215.1      5.4     10.8      0.0    141.5       72    277.6    277.6       67     0.000     0.000     0.000     0.000       92        0        0        0        0       52       29    10.391       65     45.9    4.773     1.15        7        8     2014  Essexvalley_SweetPotatoGDDCRO_Clay_S1_rainfed.PRM
  Tot(26)        1        5     2015    194.5    575.8   1303.9   400.83      0.0    188.4      6.1      1.9      0.0     91.3       46    312.5    312.5       75     0.000     0.000     0.000     0.000       93        0        0        0        0        7       19    12.052       75     51.0    6.143     1.53        7        8     2015  Essexvalley_SweetPotatoGDDCRO_Clay_S1_rainfed.PRM
  Tot(27)        1        5     2016    298.6    560.6   1303.1   404.21      0.0    287.2     11.4      1.5      0.0    115.7       64    351.2    351.2       84     0.000     0.000     0.000     0.000       90        0        0        0        0        2       13    13.211       84     51.2    6.761     1.46        4        8     2016  Essexvalley_SweetPotatoGDDCRO_Clay_S1_rainfed.PRM
  Tot(28)        1        5     2017    450.2    535.5   1307.1   406.21      0.0    299.6    150.6     55.6      0.0    118.7       70    323.9    323.9       81     0.000     0.000     0.000     0.000       92        0        0        0        0       20       19    13.018       80     51.1    6.655     1.51        7        8     2017  Essexvalley_SweetPotatoGDDCRO_Clay_S1_rainfed.PRM
  Tot(29)        1        5     2018    269.8    550.9   1302.7   408.21      0.0    255.6     14.2     32.1      0.0    142.0       84    295.1    295.1       71     0.000     0.000     0.000     0.000       94        0        0        0        0        1       29    11.851       72     48.1    5.699     1.31        9        8     2018  Essexvalley_SweetPotatoGDDCRO_Clay_S1_rainfed.PRM
