AquaCrop 6.0 (March 2017) - Output created on (date) : 3/5/2021   at (time) : 4:01:18 PM

    RunNr     Day1   Month1    Year1     Rain      ETo       GD     CO2      Irri   Infilt   Runoff    Drain   Upflow        E     E/Ex       Tr      TrW   Tr/Trx    SaltIn   SaltOut    SaltUp  SaltProf     Cycle   SaltStr  FertStr  WeedStr  TempStr   ExpStr   StoStr  BioMass  Brelative   HI     Yield     WPet     DayN   MonthN    YearN
                                           mm       mm    °C.day    ppm        mm       mm       mm       mm       mm       mm        %       mm       mm        %    ton/ha    ton/ha    ton/ha    ton/ha      days       %        %        %        %        %        %    ton/ha        %       %    ton/ha    kg/m3
   Tot(1)        1       10     1990    343.3    477.9   1301.2   355.00      0.0    323.4     19.9     25.8      0.0     83.4       57    365.4    365.4      100     0.000     0.000     0.000     0.000       99        0        0        0        0        0        0    15.993      100     53.8    8.608     1.92       13        1     1991  Essexvalley_SweetPotatoGDDCRO_ClayLoam_S2_rainfed.PRM
   Tot(2)        1       10     1991    186.5    510.5   1301.4   356.03      0.0    176.6      9.9      0.0      0.0    103.4       67    311.4    311.4       79     0.000     0.000     0.000     0.000      101        0        0        0        0        4       18    12.718       79     47.4    6.029     1.45       15        1     1992  Essexvalley_SweetPotatoGDDCRO_ClayLoam_S2_rainfed.PRM
   Tot(3)        1       10     1992     80.8    518.5   1300.6   356.27      0.0     80.8      0.0      0.0      0.0     82.9       47    230.8    230.8       62     0.000     0.000     0.000     0.000       96        0        0        0        0       59       31     8.956       59     40.9    3.659     1.17       10        1     1993  Essexvalley_SweetPotatoGDDCRO_ClayLoam_S2_rainfed.PRM
   Tot(4)        1       10     1993    197.7    508.3   1303.0   357.47      0.0    191.6      6.1      1.8      0.0    106.7       68    311.9    311.9       80     0.000     0.000     0.000     0.000       99        0        0        0        0       27       16    12.785       81     48.5    6.197     1.48       13        1     1994  Essexvalley_SweetPotatoGDDCRO_ClayLoam_S2_rainfed.PRM
   Tot(5)        1       10     1994    216.2    508.8   1295.3   359.82      0.0    200.8     15.4      0.0      0.0     98.0       63    332.7    332.7       86     0.000     0.000     0.000     0.000       98        0        0        0        0        2       11    13.693       87     49.8    6.817     1.59       12        1     1995  Essexvalley_SweetPotatoGDDCRO_ClayLoam_S2_rainfed.PRM
   Tot(6)        1       10     1995    250.8    492.8   1300.4   361.72      0.0    221.6     29.2     55.6      0.0    119.9       78    279.0    279.0       75     0.000     0.000     0.000     0.000       96        0        0        0        0       53       21    11.363       73     47.0    5.342     1.35       11        1     1996  Essexvalley_SweetPotatoGDDCRO_ClayLoam_S2_rainfed.PRM
   Tot(7)        1       10     1996    268.9    514.0   1299.9   363.17      0.0    243.0     25.9      0.0      0.0    118.0       82    355.4    355.4       87     0.000     0.000     0.000     0.000      102        0        0        0        0        4       10    14.663       88     50.3    7.373     1.56       16        1     1997  Essexvalley_SweetPotatoGDDCRO_ClayLoam_S2_rainfed.PRM
   Tot(8)        1       10     1997    267.6    493.2   1296.7   365.22      0.0    236.6     31.0     39.8      0.0    116.2       77    309.6    309.6       82     0.000     0.000     0.000     0.000       96        0        0        0        0        4       14    12.814       82     48.6    6.222     1.46       11        1     1998  Essexvalley_SweetPotatoGDDCRO_ClayLoam_S2_rainfed.PRM
   Tot(9)        1       10     1998    423.0    474.5   1300.0   367.54      0.0    369.8     53.2     53.1      0.0    106.2       75    367.7    367.7      100     0.000     0.000     0.000     0.000       98        0        0        0        0        0        0    16.304      100     53.8    8.775     1.86       12        1     1999  Essexvalley_SweetPotatoGDDCRO_ClayLoam_S2_rainfed.PRM
  Tot(10)        1       10     1999    511.5    512.1   1301.2   368.97      0.0    406.3    105.2    139.4      0.0    128.9       95    366.2    366.2       89     0.000     0.000     0.000     0.000      108        0        0        0        0        0        8    16.431       92     51.3    8.427     1.70       22        1     2000  Essexvalley_SweetPotatoGDDCRO_ClayLoam_S2_rainfed.PRM
  Tot(11)        1       10     2000    461.5    495.6   1298.6   370.35      0.0    382.9     78.6      6.0      0.0     92.5       59    368.5    368.5       98     0.000     0.000     0.000     0.000      101        0        0        0        0       24        1    16.629       98     53.5    8.898     1.93       16        1     2001  Essexvalley_SweetPotatoGDDCRO_ClayLoam_S2_rainfed.PRM
  Tot(12)        1       10     2001    507.6    474.8   1300.2   372.21      0.0    442.3     65.3     75.8      0.0    120.7       82    362.9    362.9      100     0.000     0.000     0.000     0.000      100        0        0        0        0        0       -0    16.933      100     53.8    9.114     1.89       14        1     2002  Essexvalley_SweetPotatoGDDCRO_ClayLoam_S2_rainfed.PRM
  Tot(13)        1       10     2002    231.9    483.9   1294.9   374.54      0.0    216.6     15.3     18.8      0.0    106.7       74    304.8    304.8       82     0.000     0.000     0.000     0.000       96        0        0        0        0       22       15    13.047       82     49.1    6.409     1.56       10        1     2003  Essexvalley_SweetPotatoGDDCRO_ClayLoam_S2_rainfed.PRM
  Tot(14)        1       10     2003    328.1    494.5   1300.3   376.66      0.0    319.9      8.2      1.9      0.0    112.9       79    386.6    386.6      100     0.000     0.000     0.000     0.000       96        0        0        0        0        0        0    16.235      100     53.7    8.721     1.75       10        1     2004  Essexvalley_SweetPotatoGDDCRO_ClayLoam_S2_rainfed.PRM
  Tot(15)        1       10     2004    153.6    540.4   1303.2   378.66      0.0    152.4      1.2      1.1      0.0     81.1       49    295.0    295.0       71     0.000     0.000     0.000     0.000       97        0        0        0        0       51       24    11.524       70     45.1    5.195     1.39       11        1     2005  Essexvalley_SweetPotatoGDDCRO_ClayLoam_S2_rainfed.PRM
  Tot(16)        1       10     2005    746.8    451.8   1301.8   380.85      0.0    565.7    181.1    205.3      0.0    117.3       98    362.4    362.4      100     0.000     0.000     0.000     0.000      100        0        0        0        0        0        0    17.013      100     55.0    9.357     1.95       15        1     2006  Essexvalley_SweetPotatoGDDCRO_ClayLoam_S2_rainfed.PRM
  Tot(17)        1       10     2006    263.9    483.4   1303.0   382.85      0.0    250.1     13.8      0.0      0.0     86.7       58    361.2    361.2       98     0.000     0.000     0.000     0.000       93        0        0        0        0        0        1    15.796       99     53.5    8.454     1.89        7        1     2007  Essexvalley_SweetPotatoGDDCRO_ClayLoam_S2_rainfed.PRM
  Tot(18)        1       10     2007    574.1    468.2   1302.7   384.70      0.0    444.6    129.5    177.5      0.0    118.8       96    359.3    359.3       96     0.000     0.000     0.000     0.000      101        0        0        0        0        0        4    16.633       96     54.2    9.008     1.89       16        1     2008  Essexvalley_SweetPotatoGDDCRO_ClayLoam_S2_rainfed.PRM
  Tot(19)        1       10     2008    325.1    486.5   1305.4   386.51      0.0    288.8     36.3     41.9      0.0    121.0       88    349.6    349.6       92     0.000     0.000     0.000     0.000      101        0        0        0        0        0        7    16.177       93     51.8    8.388     1.79       15        1     2009  Essexvalley_SweetPotatoGDDCRO_ClayLoam_S2_rainfed.PRM
  Tot(20)        1       10     2009    248.9    480.2   1301.9   388.66      0.0    235.6     13.3      0.0      0.0    116.4       80    327.0    327.0       89     0.000     0.000     0.000     0.000       95        0        0        0        0        0        9    14.755       90     51.6    7.609     1.72        9        1     2010  Essexvalley_SweetPotatoGDDCRO_ClayLoam_S2_rainfed.PRM
  Tot(21)        1       10     2010    327.1    498.5   1299.7   390.77      0.0    299.6     27.5     47.2      0.0    125.7       92    352.1    352.1       89     0.000     0.000     0.000     0.000      106        0        0        0        0        0        9    16.724       89     51.2    8.561     1.79       21        1     2011  Essexvalley_SweetPotatoGDDCRO_ClayLoam_S2_rainfed.PRM
  Tot(22)        1       10     2011    244.9    496.3   1294.8   392.75      0.0    230.0     14.9     17.2      0.0    133.0       95    314.4    314.4       81     0.000     0.000     0.000     0.000       97        0        0        0        0        0       16    13.542       81     48.0    6.500     1.46       11        1     2012  Essexvalley_SweetPotatoGDDCRO_ClayLoam_S2_rainfed.PRM
  Tot(23)        1       10     2012    261.2    493.6   1296.6   395.19      0.0    227.0     34.2     26.2      0.0    106.8       75    326.0    326.0       85     0.000     0.000     0.000     0.000       98        0        0        0        0        0       12    14.861       87     49.7    7.389     1.71       12        1     2013  Essexvalley_SweetPotatoGDDCRO_ClayLoam_S2_rainfed.PRM
  Tot(24)        1       10     2013    186.1    474.9   1300.2   397.58      0.0    184.7      1.4      1.4      0.0     93.9       67    316.2    316.2       86     0.000     0.000     0.000     0.000       94        0        0        0        0        0       11    14.354       87     50.3    7.224     1.76        8        1     2014  Essexvalley_SweetPotatoGDDCRO_ClayLoam_S2_rainfed.PRM
  Tot(25)        1       10     2014    264.0    479.6   1298.5   399.74      0.0    256.4      7.6      0.0      0.0     94.7       63    357.1    357.1       99     0.000     0.000     0.000     0.000       96        0        0        0        0        0        1    16.831       99     53.5    9.011     2.00       10        1     2015  Essexvalley_SweetPotatoGDDCRO_ClayLoam_S2_rainfed.PRM
  Tot(26)        1       10     2015    253.0    457.8   1296.7   402.52      0.0    252.0      1.0      0.0      0.0    112.5       82    342.0    342.0       98     0.000     0.000     0.000     0.000       93        0        0        0        0        0        2    16.247       98     53.4    8.673     1.91        7        1     2016  Essexvalley_SweetPotatoGDDCRO_ClayLoam_S2_rainfed.PRM
  Tot(27)        1       10     2016    312.8    451.0   1299.7   405.21      0.0    297.9     14.9     16.6      0.0    119.0       90    346.7    346.7      100     0.000     0.000     0.000     0.000       95        0        0        0        0        0        0    17.031      100     53.7    9.153     1.97        9        1     2017  Essexvalley_SweetPotatoGDDCRO_ClayLoam_S2_rainfed.PRM
  Tot(28)        1       10     2017    562.0    423.3   1294.3   407.21      0.0    484.8     77.2     84.7      0.0    120.4       94    324.6    320.7      100     0.000     0.000     0.000     0.000       98        0        0        0        0        0        0    17.802      100     53.8    9.581     2.15       11        1     2018  Essexvalley_SweetPotatoGDDCRO_ClayLoam_S2_rainfed.PRM
  Tot(29)        1       10     2018    186.4    477.5   1302.6   409.21      0.0    157.1     29.3     39.3      0.0    113.0       76    240.2    244.1       67     0.000     0.000     0.000     0.000       96        0        0        0        0       52       26    11.305       66     43.6    4.933     1.40       11        1     2019  Essexvalley_SweetPotatoGDDCRO_ClayLoam_S2_rainfed.PRM
