AquaCrop 6.0 (March 2017) - Output created on (date) : 3/5/2021   at (time) : 3:55:00 PM

    RunNr     Day1   Month1    Year1     Rain      ETo       GD     CO2      Irri   Infilt   Runoff    Drain   Upflow        E     E/Ex       Tr      TrW   Tr/Trx    SaltIn   SaltOut    SaltUp  SaltProf     Cycle   SaltStr  FertStr  WeedStr  TempStr   ExpStr   StoStr  BioMass  Brelative   HI     Yield     WPet     DayN   MonthN    YearN
                                           mm       mm    °C.day    ppm        mm       mm       mm       mm       mm       mm        %       mm       mm        %    ton/ha    ton/ha    ton/ha    ton/ha      days       %        %        %        %        %        %    ton/ha        %       %    ton/ha    kg/m3
   Tot(1)       31        5     1990    184.7    581.8   1666.0   354.39      0.0    182.7      2.0     24.6      0.0    150.8       41    106.6    104.5       44     0.000     0.000     0.000     0.000       89        0        0        0        0       50       41     2.466       35     26.3    0.648     0.25        2        9     1990  Essexvalley_GroundnutGDDCRO_Sand_S1_rainfed.PRM
   Tot(2)       31        5     1991    111.3    574.3   1677.8   355.61      0.0    111.3      0.0      0.0      0.0    118.7       28     82.3     84.4       57     0.000     0.000     0.000     0.000       70        0        0        0        0       45       31     2.014       28     19.1    0.384     0.24        3        9     1991  Essexvalley_GroundnutGDDCRO_Sand_S1_rainfed.PRM
   Tot(3)       31        5     1992    127.4    583.3   1671.7   356.45      0.0    127.4      0.0      0.0      0.0    135.0       35     90.5     90.5       44     0.000     0.000     0.000     0.000       89        0        0        0        0       53       45     2.144       30     24.5    0.525     0.23        2        9     1992  Essexvalley_GroundnutGDDCRO_Sand_S1_rainfed.PRM
   Tot(4)       31        5     1993    175.4    579.5   1697.2   356.10      0.0    174.5      0.9     16.8      0.0    163.0       40     90.9     90.9       54     0.000     0.000     0.000     0.000       74        0        0        0        0       46       33     2.170       30     21.2    0.460     0.21        4        9     1993  Essexvalley_GroundnutGDDCRO_Sand_S1_rainfed.PRM
   Tot(5)       31        5     1994    112.2    629.7   1674.6   358.83      0.0    112.2      0.0      0.0      0.0    123.2       25     82.9     82.7       52     0.000     0.000     0.000     0.000       89        0        0        0        0       54       41     1.761       24     25.8    0.454     0.22        2        9     1994  Essexvalley_GroundnutGDDCRO_Sand_S1_rainfed.PRM
   Tot(6)       31        5     1995    252.9    562.4   1663.2   360.82      0.0    252.8      0.1      5.2      0.0    183.7       56    165.6    165.7       61     0.000     0.000     0.000     0.000       88        0        0        0        0       34       26     4.171       58     26.5    1.105     0.32        1        9     1995  Essexvalley_GroundnutGDDCRO_Sand_S1_rainfed.PRM
   Tot(7)       31        5     1996    178.6    580.8   1668.7   362.61      0.0    178.6      0.0      0.0      0.0    139.7       41    139.6    139.8       51     0.000     0.000     0.000     0.000       89        0        0        0        0       39       33     3.540       49     26.5    0.938     0.34        2        9     1996  Essexvalley_GroundnutGDDCRO_Sand_S1_rainfed.PRM
   Tot(8)       31        5     1997    230.4    551.6   1699.7   363.73      0.0    226.4      4.0     44.1      0.0    160.7       49    121.2    120.5       49     0.000     0.000     0.000     0.000       91        0        0        0        0       46       35     3.126       42     26.5    0.828     0.29        4        9     1997  Essexvalley_GroundnutGDDCRO_Sand_S1_rainfed.PRM
   Tot(9)       31        5     1998    250.1    560.8   1644.9   366.70      0.0    249.5      0.6     10.4      0.0    153.1       47    172.7    169.3       65     0.000     0.000     0.000     0.000       87        0        0        0        0       34       24     4.357       62     26.5    1.155     0.35       30        8     1998  Essexvalley_GroundnutGDDCRO_Sand_S1_rainfed.PRM
  Tot(10)       31        5     1999    307.8    562.1   1683.4   368.38      0.0    306.7      1.1     12.7      0.0    200.1       63    195.3    199.0       69     0.000     0.000     0.000     0.000       90        0        0        0        0       29       21     5.065       68     26.5    1.342     0.34        3        9     1999  Essexvalley_GroundnutGDDCRO_Sand_S1_rainfed.PRM
  Tot(11)       31        5     2000    294.7    578.0   1694.8   369.55      0.0    291.9      2.8     16.6      0.0    158.1       48    190.7    188.0       69     0.000     0.000     0.000     0.000       91        0        0        0        0       34       20     4.880       64     26.5    1.293     0.37        4        9     2000  Essexvalley_GroundnutGDDCRO_Sand_S1_rainfed.PRM
  Tot(12)       31        5     2001    132.9    583.9   1652.8   371.14      0.0    132.9      0.0      0.0      0.0    111.5       30    120.4    123.2       50     0.000     0.000     0.000     0.000       88        0        0        0        0       45       34     3.016       42     26.4    0.796     0.34        1        9     2001  Essexvalley_GroundnutGDDCRO_Sand_S1_rainfed.PRM
  Tot(13)       31        5     2002    247.7    553.0   1690.9   373.28      0.0    240.0      7.7     69.8      0.0    175.2       45     89.2     89.0       50     0.000     0.000     0.000     0.000       91        0        0        0        0       52       37     2.334       31     25.8    0.602     0.23        4        9     2002  Essexvalley_GroundnutGDDCRO_Sand_S1_rainfed.PRM
  Tot(14)       31        5     2003    300.4    565.3   1670.7   375.80      0.0    298.5      1.9     16.7      0.0    196.2       60    174.9    171.2       64     0.000     0.000     0.000     0.000       89        0        0        0        0       39       23     4.601       61     26.5    1.219     0.33        2        9     2003  Essexvalley_GroundnutGDDCRO_Sand_S1_rainfed.PRM
  Tot(15)       31        5     2004    170.1    586.3   1659.0   377.52      0.0    170.0      0.1      0.0      0.0    129.2       36    142.7    146.8       53     0.000     0.000     0.000     0.000       88        0        0        0        0       44       32     3.579       48     26.5    0.948     0.35        1        9     2004  Essexvalley_GroundnutGDDCRO_Sand_S1_rainfed.PRM
  Tot(16)       31        5     2005    605.5    501.0   1687.5   379.80      0.0    545.9     59.6    234.8      0.0    212.2       78    199.3    198.5       77     0.000     0.000     0.000     0.000       90        0        0        0        0       10       15     5.783       76     26.5    1.532     0.37        2        9     2005  Essexvalley_GroundnutGDDCRO_Sand_S1_rainfed.PRM
  Tot(17)       31        5     2006    347.9    545.0   1677.5   381.90      0.0    339.4      8.5     82.1      0.0    175.2       57    183.9    183.9       67     0.000     0.000     0.000     0.000       89        0        0        0        0       37       23     4.843       64     26.5    1.283     0.36        2        9     2006  Essexvalley_GroundnutGDDCRO_Sand_S1_rainfed.PRM
  Tot(18)       31        5     2007    256.4    551.0   1676.2   383.79      0.0    254.5      1.9      5.8      0.0    144.8       43    193.2    190.6       76     0.000     0.000     0.000     0.000       90        0        0        0        0       31       17     5.344       70     26.5    1.416     0.42        2        9     2007  Essexvalley_GroundnutGDDCRO_Sand_S1_rainfed.PRM
  Tot(19)       31        5     2008    423.7    540.8   1670.5   385.60      0.0    390.7     33.0     12.8      0.0    151.7       50    239.9    240.4       88     0.000     0.000     0.000     0.000       89        0        0        0        0       26        8     6.616       87     26.5    1.753     0.45        2        9     2008  Essexvalley_GroundnutGDDCRO_Sand_S1_rainfed.PRM
  Tot(20)       31        5     2009    234.8    552.0   1686.5   387.43      0.0    234.3      0.5     15.3      0.0    182.5       53    131.1    131.5       61     0.000     0.000     0.000     0.000       90        0        0        0        0       44       28     3.470       45     26.5    0.919     0.29        3        9     2009  Essexvalley_GroundnutGDDCRO_Sand_S1_rainfed.PRM
  Tot(21)       31        5     2010    506.9    500.0   1670.7   389.90      0.0    497.5      9.4    105.2      0.0    189.8       68    256.4    254.5      100     0.000     0.000     0.000     0.000       89        0        0        0        0        0        0     7.667      100     25.1    1.921     0.43        1        9     2010  Essexvalley_GroundnutGDDCRO_Sand_S1_rainfed.PRM
  Tot(22)       31        5     2011    523.5    514.8   1689.9   391.65      0.0    501.9     21.6    134.1      0.0    189.5       69    264.2    264.5       96     0.000     0.000     0.000     0.000       90        0        0        0        0        0        2     7.585       97     26.5    2.010     0.44        3        9     2011  Essexvalley_GroundnutGDDCRO_Sand_S1_rainfed.PRM
  Tot(23)       31        5     2012    345.6    550.4   1672.9   393.85      0.0    336.0      9.6     36.3      0.0    163.5       52    226.4    227.1       84     0.000     0.000     0.000     0.000       89        0        0        0        0       23       11     6.351       82     26.5    1.683     0.43        2        9     2012  Essexvalley_GroundnutGDDCRO_Sand_S1_rainfed.PRM
  Tot(24)       31        5     2013    283.8    532.9   1669.5   396.52      0.0    283.7      0.1      3.2      0.0    175.6       58    196.5    195.9       74     0.000     0.000     0.000     0.000       90        0        0        0        0       30       17     5.632       72     26.5    1.493     0.40        2        9     2013  Essexvalley_GroundnutGDDCRO_Sand_S1_rainfed.PRM
  Tot(25)       31        5     2014    215.7    548.1   1670.9   398.65      0.0    213.3      2.4      0.0      0.0    148.5       43    137.3    137.3       58     0.000     0.000     0.000     0.000       89        0        0        0        0       43       29     3.892       50     25.9    1.010     0.35        2        9     2014  Essexvalley_GroundnutGDDCRO_Sand_S1_rainfed.PRM
  Tot(26)       31        5     2015    200.0    547.2   1670.8   400.83      0.0    195.0      5.0     37.3      0.0    154.7       46    100.6    104.4       45     0.000     0.000     0.000     0.000       89        0        0        0        0       50       40     2.861       36     26.4    0.755     0.30        2        9     2015  Essexvalley_GroundnutGDDCRO_Sand_S1_rainfed.PRM
  Tot(27)       31        5     2016    302.8    528.6   1652.5   404.21      0.0    297.8      5.0     31.3      0.0    172.5       56    171.7    168.3       68     0.000     0.000     0.000     0.000       88        0        0        0        0       39       21     4.970       64     26.5    1.317     0.38       31        8     2016  Essexvalley_GroundnutGDDCRO_Sand_S1_rainfed.PRM
  Tot(28)       31        5     2017    297.3    525.7   1679.6   406.21      0.0    285.3     12.0    104.0      0.0    151.8       50    130.6    134.0       52     0.000     0.000     0.000     0.000       89        0        0        0        0       43       33     3.868       49     26.5    1.025     0.36        2        9     2017  Essexvalley_GroundnutGDDCRO_Sand_S1_rainfed.PRM
  Tot(29)       31        5     2018    146.1    548.2   1684.2   408.21      0.0    146.1      0.0      1.8      0.0    150.5       39     82.7     82.8       57     0.000     0.000     0.000     0.000       72        0        0        0        0       46       32     2.353       29     20.1    0.474     0.23        3        9     2018  Essexvalley_GroundnutGDDCRO_Sand_S1_rainfed.PRM
