AquaCrop 6.0 (March 2017) - Output created on (date) : 3/5/2021   at (time) : 4:03:59 PM

    RunNr     Day1   Month1    Year1     Rain      ETo       GD     CO2      Irri   Infilt   Runoff    Drain   Upflow        E     E/Ex       Tr      TrW   Tr/Trx    SaltIn   SaltOut    SaltUp  SaltProf     Cycle   SaltStr  FertStr  WeedStr  TempStr   ExpStr   StoStr  BioMass  Brelative   HI     Yield     WPet     DayN   MonthN    YearN
                                           mm       mm    °C.day    ppm        mm       mm       mm       mm       mm       mm        %       mm       mm        %    ton/ha    ton/ha    ton/ha    ton/ha      days       %        %        %        %        %        %    ton/ha        %       %    ton/ha    kg/m3
   Tot(1)        1        5     1990    210.7    602.1   1297.2   354.39      0.0    208.7      2.0      0.0      0.0     88.1       39    227.1    227.1       54     0.000     0.000     0.000     0.000       92        0        0        0        0       53       34     7.561       52     32.2    2.431     0.78        7        8     1990  Essexvalley_SweetPotatoGDDCRO_Sand_S1_rainfed.PRM
   Tot(2)        1        5     1991    176.2    582.1   1293.5   355.61      0.0    173.5      2.7     27.8      0.0    117.3       53    125.4    125.3       31     0.000     0.000     0.000     0.000       95        0        0        0        0       61       54     4.265       29     14.8    0.630     0.26        8        8     1991  Essexvalley_SweetPotatoGDDCRO_Sand_S1_rainfed.PRM
   Tot(3)        1        5     1992    177.2    598.3   1302.1   356.45      0.0    177.0      0.2      4.4      0.0    100.3       46    174.2    174.3       42     0.000     0.000     0.000     0.000       93        0        0        0        0       56       44     5.974       41     23.2    1.388     0.51        8        8     1992  Essexvalley_SweetPotatoGDDCRO_Sand_S1_rainfed.PRM
   Tot(4)        1        5     1993    326.2    574.6   1300.5   356.10      0.0    322.9      3.3     60.2      0.0    156.9       85    211.1    211.1       49     0.000     0.000     0.000     0.000       95        0        0        0        0       54       38     7.360       50     25.8    1.901     0.52       10        8     1993  Essexvalley_SweetPotatoGDDCRO_Sand_S1_rainfed.PRM
   Tot(5)        1        5     1994    132.3    646.9   1302.6   358.83      0.0    132.3      0.0      0.0      0.0    121.9       42    102.2    102.2       26     0.000     0.000     0.000     0.000       92        0        0        0        0       66       59     3.076       21     10.7    0.330     0.15        6        8     1994  Essexvalley_SweetPotatoGDDCRO_Sand_S1_rainfed.PRM
   Tot(6)        1        5     1995    219.3    592.7   1302.0   360.82      0.0    219.2      0.1      5.5      0.0    101.8       44    214.1    214.1       53     0.000     0.000     0.000     0.000       90        0        0        0        0       55       35     7.011       49     27.6    1.936     0.62        5        8     1995  Essexvalley_SweetPotatoGDDCRO_Sand_S1_rainfed.PRM
   Tot(7)        1        5     1996    214.7    606.4   1295.4   362.61      0.0    213.5      1.2     15.9      0.0    122.5       48    176.9    176.9       45     0.000     0.000     0.000     0.000       92        0        0        0        0       57       42     5.786       40     20.0    1.159     0.39        7        8     1996  Essexvalley_SweetPotatoGDDCRO_Sand_S1_rainfed.PRM
   Tot(8)        1        5     1997    231.2    603.3   1304.5   363.73      0.0    227.3      3.9     41.7      0.0     57.7       26    233.7    233.7       56     0.000     0.000     0.000     0.000       94        0        0        0        0       30       33     8.235       54     30.7    2.525     0.87        8        8     1997  Essexvalley_SweetPotatoGDDCRO_Sand_S1_rainfed.PRM
   Tot(9)        1        5     1998    227.0    595.1   1307.4   366.70      0.0    226.4      0.6      0.0      0.0     81.9       35    245.3    245.3       61     0.000     0.000     0.000     0.000       88        0        0        0        0       49       30     8.051       56     38.6    3.111     0.95        3        8     1998  Essexvalley_SweetPotatoGDDCRO_Sand_S1_rainfed.PRM
  Tot(10)        1        5     1999    347.5    590.4   1297.1   368.38      0.0    344.8      2.7     25.4      0.0    111.5       58    315.4    315.4       72     0.000     0.000     0.000     0.000       93        0        0        0        0       18       21    10.923       72     38.4    4.191     0.99        8        8     1999  Essexvalley_SweetPotatoGDDCRO_Sand_S1_rainfed.PRM
  Tot(11)        1        5     2000    238.2    610.5   1296.9   369.55      0.0    238.1      0.1      0.0      0.0     94.5       42    239.0    239.0       56     0.000     0.000     0.000     0.000       93        0        0        0        0       53       34     8.088       53     31.9    2.577     0.78        8        8     2000  Essexvalley_SweetPotatoGDDCRO_Sand_S1_rainfed.PRM
  Tot(12)        1        5     2001    249.4    607.1   1306.1   371.14      0.0    245.4      4.0     53.6      0.0    169.1       59    113.9    113.9       33     0.000     0.000     0.000     0.000       93        0        0        0        0       66       54     3.782       25     14.8    0.559     0.20        8        8     2001  Essexvalley_SweetPotatoGDDCRO_Sand_S1_rainfed.PRM
  Tot(13)        1        5     2002    418.8    573.9   1306.7   373.28      0.0    389.5     29.3    206.3      0.0     76.3       39    211.8    211.8       52     0.000     0.000     0.000     0.000       96        0        0        0        0       28       36     8.304       53     29.7    2.470     0.86       10        8     2002  Essexvalley_SweetPotatoGDDCRO_Sand_S1_rainfed.PRM
  Tot(14)        1        5     2003    325.4    603.4   1304.9   375.80      0.0    319.6      5.8     29.0      0.0     82.3       41    310.8    310.8       70     0.000     0.000     0.000     0.000       93        0        0        0        0       16       23    10.760       70     39.7    4.268     1.09        7        8     2003  Essexvalley_SweetPotatoGDDCRO_Sand_S1_rainfed.PRM
  Tot(15)        1        5     2004    158.5    612.1   1301.2   377.52      0.0    158.5      0.0      0.0      0.0    132.7       44    123.6    123.6       36     0.000     0.000     0.000     0.000       92        0        0        0        0       67       50     4.178       28     20.4    0.852     0.34        6        8     2004  Essexvalley_SweetPotatoGDDCRO_Sand_S1_rainfed.PRM
  Tot(16)        1        5     2005    680.1    528.8   1300.6   379.80      0.0    624.1     56.0    207.3      0.0    122.2       71    385.7    385.7       98     0.000     0.000     0.000     0.000       92        0        0        0        0        8        2    15.040       99     53.1    7.987     1.57        6        8     2005  Essexvalley_SweetPotatoGDDCRO_Sand_S1_rainfed.PRM
  Tot(17)        1        5     2006    327.1    580.7   1300.1   381.90      0.0    319.0      8.1     42.5      0.0     72.4       36    300.3    300.3       72     0.000     0.000     0.000     0.000       91        0        0        0        0        8       21    11.025       72     40.6    4.474     1.21        6        8     2006  Essexvalley_SweetPotatoGDDCRO_Sand_S1_rainfed.PRM
  Tot(18)        1        5     2007    343.9    565.8   1303.7   383.79      0.0    330.2     13.7     75.6      0.0    127.2       76    224.9    224.9       53     0.000     0.000     0.000     0.000       92        0        0        0        0       27       36     8.349       54     25.9    2.160     0.62        6        8     2007  Essexvalley_SweetPotatoGDDCRO_Sand_S1_rainfed.PRM
  Tot(19)        1        5     2008    267.1    582.5   1301.2   385.60      0.0    264.1      3.0      1.4      0.0     72.0       36    289.2    289.2       69     0.000     0.000     0.000     0.000       93        0        0        0        0       21       23    10.651       68     41.5    4.423     1.23        7        8     2008  Essexvalley_SweetPotatoGDDCRO_Sand_S1_rainfed.PRM
  Tot(20)        1        5     2009    307.5    572.6   1301.3   387.43      0.0    304.7      2.8     39.7      0.0    110.2       59    263.5    263.5       63     0.000     0.000     0.000     0.000       94        0        0        0        0        6       28    10.199       64     34.7    3.537     0.95        9        8     2009  Essexvalley_SweetPotatoGDDCRO_Sand_S1_rainfed.PRM
  Tot(21)        1        5     2010    559.2    527.0   1305.6   389.90      0.0    529.6     29.6     94.5      0.0     90.3       51    364.6    364.6       94     0.000     0.000     0.000     0.000       91        0        0        0        0       21        4    14.749       95     51.6    7.610     1.68        5        8     2010  Essexvalley_SweetPotatoGDDCRO_Sand_S1_rainfed.PRM
  Tot(22)        1        5     2011    477.6    552.7   1304.3   391.65      0.0    457.6     20.0    105.5      0.0     72.4       38    375.1    375.1       94     0.000     0.000     0.000     0.000       94        0        0        0        0        3        4    15.044       94     51.1    7.686     1.72        8        8     2011  Essexvalley_SweetPotatoGDDCRO_Sand_S1_rainfed.PRM
  Tot(23)        1        5     2012    329.9    574.9   1298.5   393.85      0.0    322.0      7.9      3.7      0.0     95.1       50    288.2    288.2       68     0.000     0.000     0.000     0.000       91        0        0        0        0       18       25    10.530       67     37.8    3.982     1.04        6        8     2012  Essexvalley_SweetPotatoGDDCRO_Sand_S1_rainfed.PRM
  Tot(24)        1        5     2013    250.8    566.6   1301.4   396.52      0.0    250.8      0.0      0.3      0.0     92.7       49    265.6    265.6       64     0.000     0.000     0.000     0.000       92        0        0        0        0       26       27    10.348       65     35.3    3.653     1.02        7        8     2013  Essexvalley_SweetPotatoGDDCRO_Sand_S1_rainfed.PRM
  Tot(25)        1        5     2014    220.5    577.1   1301.6   398.65      0.0    216.2      4.3     25.6      0.0    132.9       58    155.4    155.4       40     0.000     0.000     0.000     0.000       92        0        0        0        0       60       46     5.913       37     21.9    1.297     0.45        7        8     2014  Essexvalley_SweetPotatoGDDCRO_Sand_S1_rainfed.PRM
  Tot(26)        1        5     2015    194.5    575.8   1303.9   400.83      0.0    193.0      1.5      0.0      0.0     78.5       38    220.6    220.6       55     0.000     0.000     0.000     0.000       93        0        0        0        0       33       34     8.632       53     31.1    2.686     0.90        7        8     2015  Essexvalley_SweetPotatoGDDCRO_Sand_S1_rainfed.PRM
  Tot(27)        1        5     2016    298.6    560.6   1303.1   404.21      0.0    295.9      2.7      6.2      0.0     99.5       55    272.8    272.8       66     0.000     0.000     0.000     0.000       90        0        0        0        0       13       25    10.593       67     35.5    3.759     1.02        4        8     2016  Essexvalley_SweetPotatoGDDCRO_Sand_S1_rainfed.PRM
  Tot(28)        1        5     2017    450.2    535.5   1307.1   406.21      0.0    400.6     49.6    151.2      0.0     93.8       51    252.6    252.6       66     0.000     0.000     0.000     0.000       92        0        0        0        0       26       26    10.333       64     40.8    4.212     1.23        7        8     2017  Essexvalley_SweetPotatoGDDCRO_Sand_S1_rainfed.PRM
  Tot(29)        1        5     2018    269.8    550.9   1302.7   408.21      0.0    267.5      2.3     54.7      0.0    133.5       70    183.3    183.3       47     0.000     0.000     0.000     0.000       94        0        0        0        0       57       41     7.531       46     25.9    1.950     0.62        9        8     2018  Essexvalley_SweetPotatoGDDCRO_Sand_S1_rainfed.PRM
