AquaCrop 6.0 (March 2017) - Output created on (date) : 3/5/2021   at (time) : 4:08:54 PM

    RunNr     Day1   Month1    Year1     Rain      ETo       GD     CO2      Irri   Infilt   Runoff    Drain   Upflow        E     E/Ex       Tr      TrW   Tr/Trx    SaltIn   SaltOut    SaltUp  SaltProf     Cycle   SaltStr  FertStr  WeedStr  TempStr   ExpStr   StoStr  BioMass  Brelative   HI     Yield     WPet     DayN   MonthN    YearN
                                           mm       mm    °C.day    ppm        mm       mm       mm       mm       mm       mm        %       mm       mm        %    ton/ha    ton/ha    ton/ha    ton/ha      days       %        %        %        %        %        %    ton/ha        %       %    ton/ha    kg/m3
   Tot(1)        1        5     1990    171.6    444.4   1508.4   354.39      0.0    167.2      4.4      0.0      0.0    122.4       47    176.9    175.3       78     0.000     0.000     0.000     0.000       72        0        0        0        0       43       14     5.257       67     53.2    2.796     0.93       13        7     1990  Essexvalley_TomatoGDDCRO_ClayLoam_S1_rainfed.PRM
   Tot(2)        1        5     1991    158.3    429.8   1522.3   355.61      0.0    153.0      5.3      7.3      0.0    133.2       59    158.1    159.0       66     0.000     0.000     0.000     0.000       73        0        0        0        0       45       24     4.750       59     51.2    2.433     0.84       14        7     1991  Essexvalley_TomatoGDDCRO_ClayLoam_S1_rainfed.PRM
   Tot(3)        1        5     1992    140.9    441.6   1524.6   356.45      0.0    140.3      0.6      0.0      0.0    121.5       50    162.0    161.8       68     0.000     0.000     0.000     0.000       73        0        0        0        0       43       21     4.884       61     52.4    2.558     0.90       14        7     1992  Essexvalley_TomatoGDDCRO_ClayLoam_S1_rainfed.PRM
   Tot(4)        1        5     1993    293.1    412.9   1536.0   356.10      0.0    272.2     20.9     23.8      0.0    175.8       93    209.1    208.5       80     0.000     0.000     0.000     0.000       74        0        0        0        0       25       13     6.596       81     54.5    3.597     0.93       15        7     1993  Essexvalley_TomatoGDDCRO_ClayLoam_S1_rainfed.PRM
   Tot(5)        1        5     1994    105.0    485.5   1516.1   358.83      0.0    105.0      0.0      0.0      0.0    126.4       42    126.5    127.7       58     0.000     0.000     0.000     0.000       72        0        0        0        0       55       30     3.377       42     47.5    1.605     0.63       13        7     1994  Essexvalley_TomatoGDDCRO_ClayLoam_S1_rainfed.PRM
   Tot(6)        1        5     1995    165.5    446.8   1497.6   360.82      0.0    163.8      1.7      2.1      0.0    141.5       52    156.5    155.5       72     0.000     0.000     0.000     0.000       71        0        0        0        0       50       18     4.544       58     50.3    2.284     0.77       12        7     1995  Essexvalley_TomatoGDDCRO_ClayLoam_S1_rainfed.PRM
   Tot(7)        1        5     1996    158.9    453.2   1504.9   362.61      0.0    157.3      1.6      0.0      0.0    144.8       55    149.8    149.5       65     0.000     0.000     0.000     0.000       72        0        0        0        0       52       24     4.261       53     49.8    2.124     0.72       13        7     1996  Essexvalley_TomatoGDDCRO_ClayLoam_S1_rainfed.PRM
   Tot(8)        1        5     1997    192.7    451.2   1525.0   363.73      0.0    173.3     19.4     10.3      0.0    103.5       39    192.1    192.1       84     0.000     0.000     0.000     0.000       73        0        0        0        0       28       10     6.082       74     55.6    3.380     1.14       14        7     1997  Essexvalley_TomatoGDDCRO_ClayLoam_S1_rainfed.PRM
   Tot(9)        1        5     1998    182.2    453.0   1487.3   366.70      0.0    176.6      5.6      0.0      0.0    123.0       43    165.7    163.0       78     0.000     0.000     0.000     0.000       70        0        0        0        0       51       14     4.785       61     51.0    2.440     0.85       11        7     1998  Essexvalley_TomatoGDDCRO_ClayLoam_S1_rainfed.PRM
  Tot(10)        1        5     1999    315.0    437.7   1523.4   368.38      0.0    307.5      7.5      1.4      0.0    157.2       71    243.7    243.8       95     0.000     0.000     0.000     0.000       73        0        0        0        0       21        3     7.584       92     56.9    4.318     1.08       14        7     1999  Essexvalley_TomatoGDDCRO_ClayLoam_S1_rainfed.PRM
  Tot(11)        1        5     2000    162.3    464.6   1523.8   369.55      0.0    162.0      0.3      0.0      0.0    127.9       48    175.1    178.3       73     0.000     0.000     0.000     0.000       73        0        0        0        0       44       17     5.218       63     53.2    2.776     0.92       14        7     2000  Essexvalley_TomatoGDDCRO_ClayLoam_S1_rainfed.PRM
  Tot(12)        1        5     2001    195.8    456.0   1520.0   371.14      0.0    175.9     19.9     20.8      0.0    160.1       67    145.6    146.4       59     0.000     0.000     0.000     0.000       73        0        0        0        0       48       31     4.259       51     48.3    2.058     0.67       14        7     2001  Essexvalley_TomatoGDDCRO_ClayLoam_S1_rainfed.PRM
  Tot(13)        1        5     2002    387.8    420.4   1529.0   373.28      0.0    293.1     94.7    118.1      0.0    113.8       51    194.3    193.0       82     0.000     0.000     0.000     0.000       74        0        0        0        0       10       10     6.617       78     55.3    3.662     1.19       15        7     2002  Essexvalley_TomatoGDDCRO_ClayLoam_S1_rainfed.PRM
  Tot(14)        1        5     2003    268.7    453.8   1513.6   375.80      0.0    254.0     14.7      3.5      0.0    138.6       56    226.2    225.0       91     0.000     0.000     0.000     0.000       72        0        0        0        0       25        5     6.978       84     54.8    3.825     1.05       13        7     2003  Essexvalley_TomatoGDDCRO_ClayLoam_S1_rainfed.PRM
  Tot(15)        1        5     2004    108.4    464.3   1514.2   377.52      0.0    108.4      0.0      0.0      0.0    129.5       44    125.2    127.7       61     0.000     0.000     0.000     0.000       72        0        0        0        0       55       27     3.744       45     48.5    1.817     0.71       13        7     2004  Essexvalley_TomatoGDDCRO_ClayLoam_S1_rainfed.PRM
  Tot(16)        1        5     2005    602.9    394.8   1524.2   379.80      0.0    469.2    133.7     54.0      0.0    170.5       85    230.7    227.1      100     0.000     0.000     0.000     0.000       72        0        0        0        0        4        0     8.277       99     55.7    4.611     1.15       13        7     2005  Essexvalley_TomatoGDDCRO_ClayLoam_S1_rainfed.PRM
  Tot(17)        1        5     2006    237.9    434.4   1497.6   381.90      0.0    211.4     26.5     10.6      0.0    113.0       47    209.2    210.6       89     0.000     0.000     0.000     0.000       71        0        0        0        0       11        7     6.842       83     52.7    3.606     1.12       12        7     2006  Essexvalley_TomatoGDDCRO_ClayLoam_S1_rainfed.PRM
  Tot(18)        1        5     2007    295.7    419.7   1518.2   383.79      0.0    261.0     34.7     37.8      0.0    151.2       79    211.9    213.2       80     0.000     0.000     0.000     0.000       72        0        0        0        0        2       13     6.915       82     52.8    3.651     1.01       13        7     2007  Essexvalley_TomatoGDDCRO_ClayLoam_S1_rainfed.PRM
  Tot(19)        1        5     2008    159.7    434.4   1507.5   385.60      0.0    158.0      1.7      0.0      0.0    118.8       49    178.4    178.4       76     0.000     0.000     0.000     0.000       72        0        0        0        0       34       15     5.888       70     52.5    3.089     1.04       13        7     2008  Essexvalley_TomatoGDDCRO_ClayLoam_S1_rainfed.PRM
  Tot(20)        1        5     2009    294.1    419.4   1537.4   387.43      0.0    281.5     12.6     10.6      0.0    152.7       72    232.6    230.8       95     0.000     0.000     0.000     0.000       74        0        0        0        0        5        3     8.101       93     58.8    4.765     1.24       15        7     2009  Essexvalley_TomatoGDDCRO_ClayLoam_S1_rainfed.PRM
  Tot(21)        1        5     2010    408.7    405.8   1510.7   389.90      0.0    341.2     67.5     20.7      0.0    139.8       65    224.5    222.8       99     0.000     0.000     0.000     0.000       71        0        0        0        0       16        1     7.982       95     57.3    4.573     1.26       12        7     2010  Essexvalley_TomatoGDDCRO_ClayLoam_S1_rainfed.PRM
  Tot(22)        1        5     2011    379.5    413.3   1526.9   391.65      0.0    323.2     56.3     48.6      0.0    128.9       56    221.6    221.9      100     0.000     0.000     0.000     0.000       73        0        0        0        0       11        0     8.035       92     57.5    4.619     1.32       14        7     2011  Essexvalley_TomatoGDDCRO_ClayLoam_S1_rainfed.PRM
  Tot(23)        1        5     2012    241.9    435.9   1513.5   393.85      0.0    230.4     11.5      0.3      0.0    137.3       61    215.1    216.8       87     0.000     0.000     0.000     0.000       72        0        0        0        0       32        9     7.000       81     54.2    3.792     1.08       13        7     2012  Essexvalley_TomatoGDDCRO_ClayLoam_S1_rainfed.PRM
  Tot(24)        1        5     2013    230.6    417.0   1509.4   396.52      0.0    229.9      0.7      0.0      0.0    137.3       62    206.5    205.2       88     0.000     0.000     0.000     0.000       72        0        0        0        0       30        7     7.276       84     54.3    3.952     1.15       13        7     2013  Essexvalley_TomatoGDDCRO_ClayLoam_S1_rainfed.PRM
  Tot(25)        1        5     2014    189.3    427.2   1508.1   398.65      0.0    182.5      6.8      4.7      0.0    148.7       66    170.7    173.8       72     0.000     0.000     0.000     0.000       72        0        0        0        0       44       19     5.833       67     51.5    3.003     0.94       13        7     2014  Essexvalley_TomatoGDDCRO_ClayLoam_S1_rainfed.PRM
  Tot(26)        1        5     2015    163.1    427.8   1509.3   400.83      0.0    157.8      5.3      0.0      0.0    114.7       48    176.1    175.7       78     0.000     0.000     0.000     0.000       72        0        0        0        0       34       14     6.167       71     52.7    3.253     1.12       13        7     2015  Essexvalley_TomatoGDDCRO_ClayLoam_S1_rainfed.PRM
  Tot(27)        1        5     2016    229.1    426.5   1505.6   404.21      0.0    225.0      4.1      0.0      0.0    140.8       65    214.0    213.4       86     0.000     0.000     0.000     0.000       71        0        0        0        0        7        9     7.328       85     52.3    3.829     1.08       12        7     2016  Essexvalley_TomatoGDDCRO_ClayLoam_S1_rainfed.PRM
  Tot(28)        1        5     2017    405.9    391.0   1512.5   406.21      0.0    299.6    106.3     50.8      0.0    126.5       65    220.5    219.1       96     0.000     0.000     0.000     0.000       72        0        0        0        0       20        3     8.112       92     55.3    4.488     1.29       13        7     2017  Essexvalley_TomatoGDDCRO_ClayLoam_S1_rainfed.PRM
  Tot(29)        1        5     2018    244.8    397.3   1520.3   408.21      0.0    227.9     16.9     20.6      0.0    151.2       80    194.8    196.9       80     0.000     0.000     0.000     0.000       73        0        0        0        0       27       13     7.260       81     54.6    3.966     1.15       14        7     2018  Essexvalley_TomatoGDDCRO_ClayLoam_S1_rainfed.PRM
