AquaCrop 6.0 (March 2017) - Output created on (date) : 3/5/2021   at (time) : 3:56:20 PM

    RunNr     Day1   Month1    Year1     Rain      ETo       GD     CO2      Irri   Infilt   Runoff    Drain   Upflow        E     E/Ex       Tr      TrW   Tr/Trx    SaltIn   SaltOut    SaltUp  SaltProf     Cycle   SaltStr  FertStr  WeedStr  TempStr   ExpStr   StoStr  BioMass  Brelative   HI     Yield     WPet     DayN   MonthN    YearN
                                           mm       mm    °C.day    ppm        mm       mm       mm       mm       mm       mm        %       mm       mm        %    ton/ha    ton/ha    ton/ha    ton/ha      days       %        %        %        %        %        %    ton/ha        %       %    ton/ha    kg/m3
   Tot(1)       31       10     1990    265.6    486.6   1729.6   355.00    287.2    262.9      2.7     78.2      0.0    214.2       88    275.1    271.4      100     0.000     0.000     0.000     0.000       98        0        0        0        0        0        0     8.006      100     25.0    2.001     0.41       11        2     1991  Essexvalley_GroundnutGDDCRO_Sand_S2_riegoIRR.PRM
   Tot(2)       31       10     1991    136.4    492.3   1722.4   356.03    340.5    131.9      4.5     37.5      0.0    189.1       72    263.0    263.0      100     0.000     0.000     0.000     0.000       98        0        0        0        0        0        0     8.071      100     25.0    2.018     0.45       11        2     1992  Essexvalley_GroundnutGDDCRO_Sand_S2_riegoIRR.PRM
   Tot(3)       31       10     1992    100.3    512.1   1714.9   356.27    352.5     99.8      0.5      0.0      0.0    190.7       69    271.6    271.7      100     0.000     0.000     0.000     0.000       97        0        0        0        0        0        0     7.888      100     25.0    1.972     0.43        9        2     1993  Essexvalley_GroundnutGDDCRO_Sand_S2_riegoIRR.PRM
   Tot(4)       31       10     1993    152.3    500.4   1724.3   357.47    304.4    149.9      2.4     22.3      0.0    183.2       69    265.8    265.4      100     0.000     0.000     0.000     0.000       97        0        0        0        0        0        0     7.987      100     25.0    1.997     0.44       10        2     1994  Essexvalley_GroundnutGDDCRO_Sand_S2_riegoIRR.PRM
   Tot(5)       31       10     1994    179.2    498.1   1718.8   359.82    345.4    171.7      7.5     53.8      0.0    208.6       81    271.8    272.1      100     0.000     0.000     0.000     0.000       97        0        0        0        0        0        0     8.043      100     25.0    2.011     0.42       10        2     1995  Essexvalley_GroundnutGDDCRO_Sand_S2_riegoIRR.PRM
   Tot(6)       31       10     1995    111.7    508.0   1716.9   361.72    343.9    111.7      0.0      0.0      0.0    197.4       74    275.3    275.2      100     0.000     0.000     0.000     0.000       96        0        0        0        0        0        0     7.992      100     25.0    1.998     0.42        9        2     1996  Essexvalley_GroundnutGDDCRO_Sand_S2_riegoIRR.PRM
   Tot(7)       31       10     1996    197.5    509.7   1731.9   363.17    350.6    189.0      8.5     78.2      0.0    196.5       76    282.0    282.2      100     0.000     0.000     0.000     0.000      100        0        0        0        0        0        0     8.278      100     25.0    2.070     0.43       12        2     1997  Essexvalley_GroundnutGDDCRO_Sand_S2_riegoIRR.PRM
   Tot(8)       31       10     1997    164.1    488.5   1720.2   365.22    285.0    163.5      0.6      0.0      0.0    204.6       79    260.9    260.5      100     0.000     0.000     0.000     0.000       97        0        0        0        0        0        0     8.084      100     25.0    2.021     0.43        9        2     1998  Essexvalley_GroundnutGDDCRO_Sand_S2_riegoIRR.PRM
   Tot(9)       31       10     1998    258.7    490.3   1742.8   367.54    261.5    245.6     13.1     55.0      0.0    210.7       81    260.9    265.1      100     0.000     0.000     0.000     0.000       97        0        0        0        0        0        0     8.225      100     25.0    2.056     0.44       11        2     1999  Essexvalley_GroundnutGDDCRO_Sand_S2_riegoIRR.PRM
  Tot(10)       31       10     1999    233.7    507.4   1743.9   368.97    324.6    225.9      7.8     90.9      0.0    202.6       78    276.2    276.2      100     0.000     0.000     0.000     0.000      104        0        0        0        0        0        0     8.768      100     25.0    2.192     0.46       17        2     2000  Essexvalley_GroundnutGDDCRO_Sand_S2_riegoIRR.PRM
  Tot(11)       31       10     2000    404.8    478.6   1727.5   370.35    213.9    376.7     28.1    172.1      0.0    186.2       72    249.6    246.0      100     0.000     0.000     0.000     0.000      100        0        0        0        0        0        0     8.562      100     25.0    2.141     0.49       13        2     2001  Essexvalley_GroundnutGDDCRO_Sand_S2_riegoIRR.PRM
  Tot(12)       31       10     2001    346.4    467.8   1733.1   372.21    222.6    330.9     15.5    118.1      0.0    202.5       82    250.0    249.8      100     0.000     0.000     0.000     0.000       98        0        0        0        0        0        0     8.322      100     25.0    2.080     0.46       11        2     2002  Essexvalley_GroundnutGDDCRO_Sand_S2_riegoIRR.PRM
  Tot(13)       31       10     2002    204.8    482.3   1728.2   374.54    247.3    197.8      7.0     22.6      0.0    185.1       71    254.6    254.7      100     0.000     0.000     0.000     0.000       96        0        0        0        0        0        0     8.256      100     25.0    2.064     0.47        9        2     2003  Essexvalley_GroundnutGDDCRO_Sand_S2_riegoIRR.PRM
  Tot(14)       31       10     2003    248.1    503.3   1710.3   376.66    263.9    243.0      5.1     45.7      0.0    209.3       78    268.9    268.5      100     0.000     0.000     0.000     0.000       96        0        0        0        0        0        0     8.320      100     25.0    2.080     0.43        9        2     2004  Essexvalley_GroundnutGDDCRO_Sand_S2_riegoIRR.PRM
  Tot(15)       31       10     2004    139.2    543.3   1719.9   378.66    344.0    138.4      0.8      0.0      0.0    219.6       74    279.7    279.7      100     0.000     0.000     0.000     0.000      100        0        0        0        0        0        0     8.652      100     25.0    2.163     0.43       12        2     2005  Essexvalley_GroundnutGDDCRO_Sand_S2_riegoIRR.PRM
  Tot(16)       31       10     2005    288.7    472.4   1727.9   380.85    194.6    280.1      8.6     52.0      0.0    191.4       75    248.5    249.4      100     0.000     0.000     0.000     0.000       99        0        0        0        0        0        0     8.583      100     25.0    2.146     0.49       11        2     2006  Essexvalley_GroundnutGDDCRO_Sand_S2_riegoIRR.PRM
  Tot(17)       31       10     2006    185.6    487.8   1695.5   382.85    323.8    176.5      9.1     54.7      0.0    198.3       78    264.3    263.5      100     0.000     0.000     0.000     0.000       94        0        0        0        0        0        0     8.055      100     25.0    2.014     0.44        6        2     2007  Essexvalley_GroundnutGDDCRO_Sand_S2_riegoIRR.PRM
  Tot(18)       31       10     2007    278.9    486.4   1746.7   384.70    304.8    261.1     17.8    118.8      0.0    205.2       81    261.3    265.5      100     0.000     0.000     0.000     0.000       98        0        0        0        0        0        0     8.618      100     25.0    2.154     0.46       12        2     2008  Essexvalley_GroundnutGDDCRO_Sand_S2_riegoIRR.PRM
  Tot(19)       31       10     2008    224.2    494.0   1747.8   386.51    328.9    214.6      9.6     91.4      0.0    202.1       80    269.7    269.7      100     0.000     0.000     0.000     0.000       99        0        0        0        0        0        0     8.739      100     25.0    2.185     0.47       13        2     2009  Essexvalley_GroundnutGDDCRO_Sand_S2_riegoIRR.PRM
  Tot(20)       31       10     2009    158.8    477.5   1711.3   388.66    313.4    152.1      6.7     43.7      0.0    190.0       73    249.3    245.9      100     0.000     0.000     0.000     0.000       96        0        0        0        0        0        0     8.511      100     25.0    2.128     0.48        9        2     2010  Essexvalley_GroundnutGDDCRO_Sand_S2_riegoIRR.PRM
  Tot(21)       31       10     2010    151.0    489.7   1743.9   390.77    309.7    149.2      1.8     23.0      0.0    197.1       75    256.6    260.1      100     0.000     0.000     0.000     0.000      103        0        0        0        0        0        0     9.078      100     25.0    2.270     0.50       16        2     2011  Essexvalley_GroundnutGDDCRO_Sand_S2_riegoIRR.PRM
  Tot(22)       31       10     2011     80.8    501.8   1714.0   392.75    372.2     80.8      0.0      1.8      0.0    205.4       76    263.2    259.7      100     0.000     0.000     0.000     0.000       97        0        0        0        0        0        0     8.564      100     25.0    2.141     0.46        9        2     2012  Essexvalley_GroundnutGDDCRO_Sand_S2_riegoIRR.PRM
  Tot(23)       31       10     2012    108.0    489.5   1715.4   395.19    333.7    107.4      0.6      7.4      0.0    189.6       73    261.3    261.0      100     0.000     0.000     0.000     0.000       96        0        0        0        0        0        0     8.535      100     25.0    2.134     0.47        9        2     2013  Essexvalley_GroundnutGDDCRO_Sand_S2_riegoIRR.PRM
  Tot(24)       31       10     2013    158.1    472.8   1707.3   397.58    296.7    156.1      2.0     15.7      0.0    204.1       81    250.5    250.7      100     0.000     0.000     0.000     0.000       95        0        0        0        0        0        0     8.441      100     25.0    2.110     0.46        7        2     2014  Essexvalley_GroundnutGDDCRO_Sand_S2_riegoIRR.PRM
  Tot(25)       31       10     2014    199.4    466.1   1723.3   399.74    266.4    196.7      2.7     37.1      0.0    198.4       79    245.1    245.7      100     0.000     0.000     0.000     0.000       96        0        0        0        0        0        0     8.696      100     25.0    2.174     0.49        9        2     2015  Essexvalley_GroundnutGDDCRO_Sand_S2_riegoIRR.PRM
  Tot(26)       31       10     2015    185.4    454.8   1711.2   402.52    258.9    184.3      1.1     16.3      0.0    203.7       84    240.7    240.3      100     0.000     0.000     0.000     0.000       95        0        0        0        0        0        0     8.541      100     25.0    2.135     0.48        7        2     2016  Essexvalley_GroundnutGDDCRO_Sand_S2_riegoIRR.PRM
  Tot(27)       31       10     2016    163.7    472.3   1725.3   405.21    302.3    161.1      2.6     31.9      0.0    192.9       79    255.9    255.7      100     0.000     0.000     0.000     0.000       97        0        0        0        0        0        0     8.783      100     25.0    2.196     0.49        9        2     2017  Essexvalley_GroundnutGDDCRO_Sand_S2_riegoIRR.PRM
  Tot(28)       31       10     2017    403.3    417.6   1732.9   407.21    148.7    388.7     14.6    149.1      0.0    181.9       83    223.9    224.3      100     0.000     0.000     0.000     0.000       98        0        0        0        0        0        0     8.936      100     25.0    2.234     0.55       10        2     2018  Essexvalley_GroundnutGDDCRO_Sand_S2_riegoIRR.PRM
  Tot(29)       31       10     2018     63.0    470.4   1708.0   409.21    342.2     63.0      0.0      0.0      0.0    175.2       70    247.3    247.0      100     0.000     0.000     0.000     0.000       95        0        0        0        0        0        0     8.737      100     25.0    2.184     0.52        8        2     2019  Essexvalley_GroundnutGDDCRO_Sand_S2_riegoIRR.PRM
