AquaCrop 6.0 (March 2017) - Output created on (date) : 3/5/2021   at (time) : 3:52:22 PM

    RunNr     Day1   Month1    Year1     Rain      ETo       GD     CO2      Irri   Infilt   Runoff    Drain   Upflow        E     E/Ex       Tr      TrW   Tr/Trx    SaltIn   SaltOut    SaltUp  SaltProf     Cycle   SaltStr  FertStr  WeedStr  TempStr   ExpStr   StoStr  BioMass  Brelative   HI     Yield     WPet     DayN   MonthN    YearN
                                           mm       mm    °C.day    ppm        mm       mm       mm       mm       mm       mm        %       mm       mm        %    ton/ha    ton/ha    ton/ha    ton/ha      days       %        %        %        %        %        %    ton/ha        %       %    ton/ha    kg/m3
   Tot(1)       31       10     1990    265.6    486.6   1729.6   355.00      0.0    242.8     22.8     47.1      0.0    182.9       76    242.0    241.1       88     0.000     0.000     0.000     0.000       98        0        0        0        0        0        8     7.135       89     26.5    1.891     0.45       11        2     1991  Essexvalley_GroundnutGDDCRO_ClayLoam_S2_rainfed.PRM
   Tot(2)       31       10     1991    136.4    492.3   1722.4   356.03      0.0    125.0     11.4     11.8      0.0    127.0       48    213.2    213.0       82     0.000     0.000     0.000     0.000       98        0        0        0        0        1       13     6.573       81     26.5    1.742     0.51       11        2     1992  Essexvalley_GroundnutGDDCRO_ClayLoam_S2_rainfed.PRM
   Tot(3)       31       10     1992    100.3    512.1   1714.9   356.27      0.0    100.3      0.0      0.0      0.0     86.8       32    234.1    231.5       86     0.000     0.000     0.000     0.000       97        0        0        0        0        8        9     6.829       87     26.5    1.810     0.56        9        2     1993  Essexvalley_GroundnutGDDCRO_ClayLoam_S2_rainfed.PRM
   Tot(4)       31       10     1993    152.3    500.4   1724.3   357.47      0.0    150.0      2.3      0.0      0.0    132.3       50    243.2    245.6       91     0.000     0.000     0.000     0.000       97        0        0        0        0        0        5     7.405       93     26.5    1.962     0.52       10        2     1994  Essexvalley_GroundnutGDDCRO_ClayLoam_S2_rainfed.PRM
   Tot(5)       31       10     1994    179.2    498.1   1718.8   359.82      0.0    155.8     23.4     31.4      0.0    143.5       55    215.0    215.7       80     0.000     0.000     0.000     0.000       97        0        0        0        0        2       14     6.429       80     26.5    1.704     0.48       10        2     1995  Essexvalley_GroundnutGDDCRO_ClayLoam_S2_rainfed.PRM
   Tot(6)       31       10     1995    111.7    508.0   1716.9   361.72      0.0    111.7      0.0      0.0      0.0    125.7       47    217.9    217.7       80     0.000     0.000     0.000     0.000       96        0        0        0        0        1       13     6.468       81     26.5    1.714     0.50        9        2     1996  Essexvalley_GroundnutGDDCRO_ClayLoam_S2_rainfed.PRM
   Tot(7)       31       10     1996    197.5    509.7   1731.9   363.17      0.0    172.0     25.5     42.1      0.0    145.7       56    220.2    220.5       79     0.000     0.000     0.000     0.000      100        0        0        0        0        2       15     6.531       79     26.5    1.731     0.47       12        2     1997  Essexvalley_GroundnutGDDCRO_ClayLoam_S2_rainfed.PRM
   Tot(8)       31       10     1997    164.1    488.5   1720.2   365.22      0.0    164.0      0.1      0.0      0.0    138.2       53    246.2    245.0       94     0.000     0.000     0.000     0.000       97        0        0        0        0        0        4     7.656       95     26.5    2.029     0.53        9        2     1998  Essexvalley_GroundnutGDDCRO_ClayLoam_S2_rainfed.PRM
   Tot(9)       31       10     1998    258.7    490.3   1742.8   367.54      0.0    238.2     20.5     13.6      0.0    170.7       66    258.7    260.4       99     0.000     0.000     0.000     0.000       97        0        0        0        0        0        1     8.160       99     26.2    2.135     0.50       11        2     1999  Essexvalley_GroundnutGDDCRO_ClayLoam_S2_rainfed.PRM
  Tot(10)       31       10     1999    233.7    507.4   1743.9   368.97      0.0    204.1     29.6     54.0      0.0    155.7       60    228.0    228.0       83     0.000     0.000     0.000     0.000      104        0        0        0        0        0       12     7.280       83     26.5    1.929     0.50       17        2     2000  Essexvalley_GroundnutGDDCRO_ClayLoam_S2_rainfed.PRM
  Tot(11)       31       10     2000    404.8    478.6   1727.5   370.35      0.0    332.4     72.4     75.4      0.0    137.0       53    249.6    246.0      100     0.000     0.000     0.000     0.000      100        0        0        0        0        0        0     8.562      100     25.0    2.141     0.55       13        2     2001  Essexvalley_GroundnutGDDCRO_ClayLoam_S2_rainfed.PRM
  Tot(12)       31       10     2001    346.4    467.8   1733.1   372.21      0.0    297.8     48.6     58.2      0.0    166.2       67    250.0    249.8      100     0.000     0.000     0.000     0.000       98        0        0        0        0        0        0     8.322      100     25.2    2.100     0.50       11        2     2002  Essexvalley_GroundnutGDDCRO_ClayLoam_S2_rainfed.PRM
  Tot(13)       31       10     2002    204.8    482.3   1728.2   374.54      0.0    195.7      9.1      0.0      0.0    126.1       49    254.6    254.7      100     0.000     0.000     0.000     0.000       96        0        0        0        0        0        0     8.256      100     26.5    2.188     0.57        9        2     2003  Essexvalley_GroundnutGDDCRO_ClayLoam_S2_rainfed.PRM
  Tot(14)       31       10     2003    248.1    503.3   1710.3   376.66      0.0    238.5      9.6      7.4      0.0    179.1       67    263.0    264.1       98     0.000     0.000     0.000     0.000       96        0        0        0        0        0        1     8.165       98     26.5    2.164     0.49        9        2     2004  Essexvalley_GroundnutGDDCRO_ClayLoam_S2_rainfed.PRM
  Tot(15)       31       10     2004    139.2    543.3   1719.9   378.66      0.0    139.0      0.2      0.0      0.0    112.2       38    253.9    255.3       91     0.000     0.000     0.000     0.000      100        0        0        0        0        0        6     7.956       92     26.5    2.108     0.58       12        2     2005  Essexvalley_GroundnutGDDCRO_ClayLoam_S2_rainfed.PRM
  Tot(16)       31       10     2005    288.7    472.4   1727.9   380.85      0.0    280.1      8.6      6.8      0.0    176.0       69    248.5    246.4      100     0.000     0.000     0.000     0.000       99        0        0        0        0        0        0     8.583      100     25.3    2.168     0.51       11        2     2006  Essexvalley_GroundnutGDDCRO_ClayLoam_S2_rainfed.PRM
  Tot(17)       31       10     2006    185.6    487.8   1695.5   382.85      0.0    173.4     12.2     28.7      0.0    156.9       61    220.3    222.7       84     0.000     0.000     0.000     0.000       94        0        0        0        0        0       11     6.752       84     26.5    1.789     0.47        6        2     2007  Essexvalley_GroundnutGDDCRO_ClayLoam_S2_rainfed.PRM
  Tot(18)       31       10     2007    278.9    486.4   1746.7   384.70      0.0    224.3     54.6     73.2      0.0    152.9       60    228.7    229.6       88     0.000     0.000     0.000     0.000       98        0        0        0        0        0        8     7.642       89     26.5    2.025     0.53       12        2     2008  Essexvalley_GroundnutGDDCRO_ClayLoam_S2_rainfed.PRM
  Tot(19)       31       10     2008    224.2    494.0   1747.8   386.51      0.0    188.1     36.1     58.6      0.0    147.4       58    216.3    216.3       81     0.000     0.000     0.000     0.000       99        0        0        0        0        1       13     7.136       82     26.5    1.891     0.52       13        2     2009  Essexvalley_GroundnutGDDCRO_ClayLoam_S2_rainfed.PRM
  Tot(20)       31       10     2009    158.8    477.5   1711.3   388.66      0.0    148.8     10.0      0.0      0.0    112.2       43    246.2    243.9       99     0.000     0.000     0.000     0.000       96        0        0        0        0        0        1     8.409       99     26.5    2.228     0.62        9        2     2010  Essexvalley_GroundnutGDDCRO_ClayLoam_S2_rainfed.PRM
  Tot(21)       31       10     2010    151.0    489.7   1743.9   390.77      0.0    147.0      4.0      6.6      0.0    135.0       52    232.0    234.4       90     0.000     0.000     0.000     0.000      103        0        0        0        0        0        6     8.306       91     26.5    2.201     0.60       16        2     2011  Essexvalley_GroundnutGDDCRO_ClayLoam_S2_rainfed.PRM
  Tot(22)       31       10     2011     80.8    501.8   1714.0   392.75      0.0     80.0      0.8      0.4      0.0    103.2       38    209.7    209.1       80     0.000     0.000     0.000     0.000       97        0        0        0        0        2       14     6.889       80     26.5    1.826     0.58        9        2     2012  Essexvalley_GroundnutGDDCRO_ClayLoam_S2_rainfed.PRM
  Tot(23)       31       10     2012    108.0    489.5   1715.4   395.19      0.0    105.9      2.1      2.5      0.0    124.2       48    212.2    212.2       82     0.000     0.000     0.000     0.000       96        0        0        0        0        1       13     6.968       82     26.5    1.847     0.55        9        2     2013  Essexvalley_GroundnutGDDCRO_ClayLoam_S2_rainfed.PRM
  Tot(24)       31       10     2013    158.1    472.8   1707.3   397.58      0.0    151.7      6.4      7.5      0.0    129.5       51    236.4    235.6       94     0.000     0.000     0.000     0.000       95        0        0        0        0        0        4     7.993       95     26.5    2.118     0.58        7        2     2014  Essexvalley_GroundnutGDDCRO_ClayLoam_S2_rainfed.PRM
  Tot(25)       31       10     2014    199.4    466.1   1723.3   399.74      0.0    191.8      7.6      0.0      0.0    148.2       59    244.8    243.5      100     0.000     0.000     0.000     0.000       96        0        0        0        0        0        0     8.682      100     26.1    2.268     0.58        9        2     2015  Essexvalley_GroundnutGDDCRO_ClayLoam_S2_rainfed.PRM
  Tot(26)       31       10     2015    185.4    454.8   1711.2   402.52      0.0    179.3      6.1      5.3      0.0    175.2       72    223.2    224.8       93     0.000     0.000     0.000     0.000       95        0        0        0        0        0        5     7.961       93     26.5    2.110     0.53        7        2     2016  Essexvalley_GroundnutGDDCRO_ClayLoam_S2_rainfed.PRM
  Tot(27)       31       10     2016    163.7    472.3   1725.3   405.21      0.0    156.0      7.7      7.4      0.0    159.6       65    220.6    221.0       86     0.000     0.000     0.000     0.000       97        0        0        0        0        0       10     7.607       87     26.5    2.016     0.53        9        2     2017  Essexvalley_GroundnutGDDCRO_ClayLoam_S2_rainfed.PRM
  Tot(28)       31       10     2017    403.3    417.6   1732.9   407.21      0.0    356.7     46.6     38.2      0.0    177.7       81    223.9    221.5      100     0.000     0.000     0.000     0.000       98        0        0        0        0        0        0     8.936      100     25.0    2.234     0.56       10        2     2018  Essexvalley_GroundnutGDDCRO_ClayLoam_S2_rainfed.PRM
  Tot(29)       31       10     2018     63.0    470.4   1708.0   409.21      0.0     63.0      0.0      0.0      0.0     75.9       30    216.2    218.4       87     0.000     0.000     0.000     0.000       95        0        0        0        0        1        9     7.652       88     26.5    2.028     0.69        8        2     2019  Essexvalley_GroundnutGDDCRO_ClayLoam_S2_rainfed.PRM
