AquaCrop 6.0 (March 2017) - Output created on (date) : 3/5/2021   at (time) : 3:52:49 PM

    RunNr     Day1   Month1    Year1     Rain      ETo       GD     CO2      Irri   Infilt   Runoff    Drain   Upflow        E     E/Ex       Tr      TrW   Tr/Trx    SaltIn   SaltOut    SaltUp  SaltProf     Cycle   SaltStr  FertStr  WeedStr  TempStr   ExpStr   StoStr  BioMass  Brelative   HI     Yield     WPet     DayN   MonthN    YearN
                                           mm       mm    °C.day    ppm        mm       mm       mm       mm       mm       mm        %       mm       mm        %    ton/ha    ton/ha    ton/ha    ton/ha      days       %        %        %        %        %        %    ton/ha        %       %    ton/ha    kg/m3
   Tot(1)       31       10     1990    265.6    486.6   1729.6   355.00    267.2    242.9     22.7     46.9      0.0    227.5       94    275.1    271.4      100     0.000     0.000     0.000     0.000       98        0        0        0        0        0        0     8.006      100     25.0    2.001     0.40       11        2     1991  Essexvalley_GroundnutGDDCRO_ClayLoam_S2_riegoIRR.PRM
   Tot(2)       31       10     1991    136.4    492.3   1722.4   356.03    335.4    118.1     18.3     13.7      0.0    216.2       83    263.0    263.0      100     0.000     0.000     0.000     0.000       98        0        0        0        0        0        0     8.071      100     25.0    2.018     0.42       11        2     1992  Essexvalley_GroundnutGDDCRO_ClayLoam_S2_riegoIRR.PRM
   Tot(3)       31       10     1992    100.3    512.1   1714.9   356.27    371.7     96.9      3.4      0.0      0.0    231.8       84    271.6    271.7      100     0.000     0.000     0.000     0.000       97        0        0        0        0        0        0     7.888      100     25.0    1.972     0.39        9        2     1993  Essexvalley_GroundnutGDDCRO_ClayLoam_S2_riegoIRR.PRM
   Tot(4)       31       10     1993    152.3    500.4   1724.3   357.47    307.1    139.4     12.9      0.0      0.0    219.5       82    265.8    265.4      100     0.000     0.000     0.000     0.000       97        0        0        0        0        0        0     7.987      100     25.0    1.997     0.41       10        2     1994  Essexvalley_GroundnutGDDCRO_ClayLoam_S2_riegoIRR.PRM
   Tot(5)       31       10     1994    179.2    498.1   1718.8   359.82    330.1    155.8     23.4     31.4      0.0    221.9       86    271.8    272.1      100     0.000     0.000     0.000     0.000       97        0        0        0        0        0        0     8.043      100     25.0    2.011     0.41       10        2     1995  Essexvalley_GroundnutGDDCRO_ClayLoam_S2_riegoIRR.PRM
   Tot(6)       31       10     1995    111.7    508.0   1716.9   361.72    354.3    110.7      1.0      0.0      0.0    228.9       86    275.3    275.2      100     0.000     0.000     0.000     0.000       96        0        0        0        0        0        0     7.992      100     25.0    1.998     0.40        9        2     1996  Essexvalley_GroundnutGDDCRO_ClayLoam_S2_riegoIRR.PRM
   Tot(7)       31       10     1996    197.5    509.7   1731.9   363.17    341.6    165.2     32.3     42.8      0.0    221.2       85    282.0    282.2      100     0.000     0.000     0.000     0.000      100        0        0        0        0        0        0     8.278      100     25.0    2.070     0.41       12        2     1997  Essexvalley_GroundnutGDDCRO_ClayLoam_S2_riegoIRR.PRM
   Tot(8)       31       10     1997    164.1    488.5   1720.2   365.22    300.8    157.4      6.7      0.0      0.0    236.2       91    260.9    260.5      100     0.000     0.000     0.000     0.000       97        0        0        0        0        0        0     8.084      100     25.0    2.021     0.41        9        2     1998  Essexvalley_GroundnutGDDCRO_ClayLoam_S2_riegoIRR.PRM
   Tot(9)       31       10     1998    258.7    490.3   1742.8   367.54    230.8    224.9     33.8     13.7      0.0    223.3       86    260.9    265.1      100     0.000     0.000     0.000     0.000       97        0        0        0        0        0        0     8.225      100     25.0    2.056     0.43       11        2     1999  Essexvalley_GroundnutGDDCRO_ClayLoam_S2_riegoIRR.PRM
  Tot(10)       31       10     1999    233.7    507.4   1743.9   368.97    315.3    198.6     35.1     54.4      0.0    225.0       86    276.2    276.2      100     0.000     0.000     0.000     0.000      104        0        0        0        0        0        0     8.768      100     25.0    2.192     0.44       17        2     2000  Essexvalley_GroundnutGDDCRO_ClayLoam_S2_riegoIRR.PRM
  Tot(11)       31       10     2000    404.8    478.6   1727.5   370.35    189.4    315.2     89.6     77.5      0.0    217.0       83    249.6    246.0      100     0.000     0.000     0.000     0.000      100        0        0        0        0        0        0     8.562      100     25.0    2.141     0.46       13        2     2001  Essexvalley_GroundnutGDDCRO_ClayLoam_S2_riegoIRR.PRM
  Tot(12)       31       10     2001    346.4    467.8   1733.1   372.21    198.9    288.8     57.6     58.3      0.0    218.7       88    250.0    249.8      100     0.000     0.000     0.000     0.000       98        0        0        0        0        0        0     8.322      100     25.0    2.080     0.44       11        2     2002  Essexvalley_GroundnutGDDCRO_ClayLoam_S2_riegoIRR.PRM
  Tot(13)       31       10     2002    204.8    482.3   1728.2   374.54    256.7    179.5     25.3      0.0      0.0    220.9       85    254.6    254.7      100     0.000     0.000     0.000     0.000       96        0        0        0        0        0        0     8.256      100     25.0    2.064     0.43        9        2     2003  Essexvalley_GroundnutGDDCRO_ClayLoam_S2_riegoIRR.PRM
  Tot(14)       31       10     2003    248.1    503.3   1710.3   376.66    252.3    220.4     27.7      7.4      0.0    235.3       88    268.9    268.5      100     0.000     0.000     0.000     0.000       96        0        0        0        0        0        0     8.320      100     25.0    2.080     0.41        9        2     2004  Essexvalley_GroundnutGDDCRO_ClayLoam_S2_riegoIRR.PRM
  Tot(15)       31       10     2004    139.2    543.3   1719.9   378.66    367.1    134.1      5.1      0.0      0.0    260.3       87    279.7    279.7      100     0.000     0.000     0.000     0.000      100        0        0        0        0        0        0     8.652      100     25.0    2.163     0.40       12        2     2005  Essexvalley_GroundnutGDDCRO_ClayLoam_S2_riegoIRR.PRM
  Tot(16)       31       10     2005    288.7    472.4   1727.9   380.85    183.9    248.2     40.5      0.0      0.0    223.5       88    248.5    249.4      100     0.000     0.000     0.000     0.000       99        0        0        0        0        0        0     8.583      100     25.0    2.146     0.45       11        2     2006  Essexvalley_GroundnutGDDCRO_ClayLoam_S2_riegoIRR.PRM
  Tot(17)       31       10     2006    185.6    487.8   1695.5   382.85    310.2    155.5     30.1     17.8      0.0    222.7       87    264.3    263.5      100     0.000     0.000     0.000     0.000       94        0        0        0        0        0        0     8.055      100     25.0    2.014     0.41        6        2     2007  Essexvalley_GroundnutGDDCRO_ClayLoam_S2_riegoIRR.PRM
  Tot(18)       31       10     2007    278.9    486.4   1746.7   384.70    293.0    219.9     59.0     73.2      0.0    220.5       87    261.3    265.5      100     0.000     0.000     0.000     0.000       98        0        0        0        0        0        0     8.618      100     25.0    2.154     0.45       12        2     2008  Essexvalley_GroundnutGDDCRO_ClayLoam_S2_riegoIRR.PRM
  Tot(19)       31       10     2008    224.2    494.0   1747.8   386.51    312.8    187.7     36.5     58.7      0.0    214.7       85    269.7    269.7      100     0.000     0.000     0.000     0.000       99        0        0        0        0        0        0     8.739      100     25.0    2.185     0.45       13        2     2009  Essexvalley_GroundnutGDDCRO_ClayLoam_S2_riegoIRR.PRM
  Tot(20)       31       10     2009    158.8    477.5   1711.3   388.66    298.7    132.7     26.1      1.1      0.0    220.7       85    249.3    245.9      100     0.000     0.000     0.000     0.000       96        0        0        0        0        0        0     8.511      100     25.0    2.128     0.45        9        2     2010  Essexvalley_GroundnutGDDCRO_ClayLoam_S2_riegoIRR.PRM
  Tot(21)       31       10     2010    151.0    489.7   1743.9   390.77    314.5    138.7     12.3      6.1      0.0    230.5       88    256.6    260.1      100     0.000     0.000     0.000     0.000      103        0        0        0        0        0        0     9.078      100     25.0    2.270     0.47       16        2     2011  Essexvalley_GroundnutGDDCRO_ClayLoam_S2_riegoIRR.PRM
  Tot(22)       31       10     2011     80.8    501.8   1714.0   392.75    382.4     79.8      1.0      0.4      0.0    238.4       88    263.2    259.7      100     0.000     0.000     0.000     0.000       97        0        0        0        0        0        0     8.564      100     25.0    2.141     0.43        9        2     2012  Essexvalley_GroundnutGDDCRO_ClayLoam_S2_riegoIRR.PRM
  Tot(23)       31       10     2012    108.0    489.5   1715.4   395.19    353.5    101.7      6.3      2.3      0.0    231.0       89    261.3    261.0      100     0.000     0.000     0.000     0.000       96        0        0        0        0        0        0     8.535      100     25.0    2.134     0.43        9        2     2013  Essexvalley_GroundnutGDDCRO_ClayLoam_S2_riegoIRR.PRM
  Tot(24)       31       10     2013    158.1    472.8   1707.3   397.58    296.6    148.8      9.3      7.1      0.0    227.6       90    250.5    250.7      100     0.000     0.000     0.000     0.000       95        0        0        0        0        0        0     8.441      100     25.0    2.110     0.44        7        2     2014  Essexvalley_GroundnutGDDCRO_ClayLoam_S2_riegoIRR.PRM
  Tot(25)       31       10     2014    199.4    466.1   1723.3   399.74    247.4    180.9     18.5      0.0      0.0    223.4       89    245.1    245.7      100     0.000     0.000     0.000     0.000       96        0        0        0        0        0        0     8.696      100     25.0    2.174     0.46        9        2     2015  Essexvalley_GroundnutGDDCRO_ClayLoam_S2_riegoIRR.PRM
  Tot(26)       31       10     2015    185.4    454.8   1711.2   402.52    243.9    178.7      6.7      5.3      0.0    216.5       89    240.7    240.3      100     0.000     0.000     0.000     0.000       95        0        0        0        0        0        0     8.541      100     25.0    2.135     0.47        7        2     2016  Essexvalley_GroundnutGDDCRO_ClayLoam_S2_riegoIRR.PRM
  Tot(27)       31       10     2016    163.7    472.3   1725.3   405.21    285.8    151.0     12.7      6.5      0.0    213.8       87    255.9    255.7      100     0.000     0.000     0.000     0.000       97        0        0        0        0        0        0     8.783      100     25.0    2.196     0.47        9        2     2017  Essexvalley_GroundnutGDDCRO_ClayLoam_S2_riegoIRR.PRM
  Tot(28)       31       10     2017    403.3    417.6   1732.9   407.21     88.5    339.4     63.9     53.3      0.0    190.8       87    223.9    224.3      100     0.000     0.000     0.000     0.000       98        0        0        0        0        0        0     8.936      100     25.0    2.234     0.54       10        2     2018  Essexvalley_GroundnutGDDCRO_ClayLoam_S2_riegoIRR.PRM
  Tot(29)       31       10     2018     63.0    470.4   1708.0   409.21    358.8     61.5      1.5      0.0      0.0    212.6       84    247.3    247.0      100     0.000     0.000     0.000     0.000       95        0        0        0        0        0        0     8.737      100     25.0    2.184     0.47        8        2     2019  Essexvalley_GroundnutGDDCRO_ClayLoam_S2_riegoIRR.PRM
