AquaCrop 6.0 (March 2017) - Output created on (date) : 3/5/2021   at (time) : 4:12:20 PM

    RunNr     Day1   Month1    Year1     Rain      ETo       GD     CO2      Irri   Infilt   Runoff    Drain   Upflow        E     E/Ex       Tr      TrW   Tr/Trx    SaltIn   SaltOut    SaltUp  SaltProf     Cycle   SaltStr  FertStr  WeedStr  TempStr   ExpStr   StoStr  BioMass  Brelative   HI     Yield     WPet     DayN   MonthN    YearN
                                           mm       mm    °C.day    ppm        mm       mm       mm       mm       mm       mm        %       mm       mm        %    ton/ha    ton/ha    ton/ha    ton/ha      days       %        %        %        %        %        %    ton/ha        %       %    ton/ha    kg/m3
   Tot(1)       31       10     1990    261.6    346.2   1544.5   355.00      0.0    259.1      2.5     70.8      0.0    124.8       78    132.4    132.3       63     0.000     0.000     0.000     0.000       76        0        0        0        0       28       27     5.302       63     49.2    2.607     1.01       16        1     1991  Essexvalley_TomatoGDDCRO_Sand_S2_rainfed.PRM
   Tot(2)       31       10     1991    115.1    365.0   1534.8   356.03      0.0    111.1      4.0     32.5      0.0     81.4       34     66.2     66.3       46     0.000     0.000     0.000     0.000       76        0        0        0        0       59       44     2.473       29     41.7    1.032     0.70       16        1     1992  Essexvalley_TomatoGDDCRO_Sand_S2_rainfed.PRM
   Tot(3)       31       10     1992     47.0    385.9   1523.3   356.27      0.0     47.0      0.0      0.0      0.0     61.5       18     48.6     48.4       60     0.000     0.000     0.000     0.000       74        0        0        0        0       69       33     1.675       20     49.9    0.835     0.76       14        1     1993  Essexvalley_TomatoGDDCRO_Sand_S2_rainfed.PRM
   Tot(4)       31       10     1993    134.9    364.3   1529.0   357.47      0.0    133.7      1.2     13.3      0.0     79.4       38    103.0    100.5       57     0.000     0.000     0.000     0.000       75        0        0        0        0       45       29     4.036       48     47.0    1.895     1.04       15        1     1994  Essexvalley_TomatoGDDCRO_Sand_S2_rainfed.PRM
   Tot(5)       31       10     1994    162.4    366.6   1528.6   359.82      0.0    154.9      7.5     53.5      0.0    109.5       40     59.0     61.8       52     0.000     0.000     0.000     0.000       73        0        0        0        0       61       44     2.115       25     39.8    0.842     0.52       15        1     1995  Essexvalley_TomatoGDDCRO_Sand_S2_rainfed.PRM
   Tot(6)       31       10     1995     91.3    371.1   1539.8   361.72      0.0     91.3      0.0      0.0      0.0     95.0       37     64.0     63.9       49     0.000     0.000     0.000     0.000       75        0        0        0        0       58       41     2.427       29     42.8    1.040     0.65       15        1     1996  Essexvalley_TomatoGDDCRO_Sand_S2_rainfed.PRM
   Tot(7)       31       10     1996    177.9    374.4   1546.1   363.17      0.0    169.9      8.0     73.1      0.0     93.1       40     72.7     72.7       47     0.000     0.000     0.000     0.000       76        0        0        0        0       55       45     2.697       31     40.8    1.101     0.67       17        1     1997  Essexvalley_TomatoGDDCRO_Sand_S2_rainfed.PRM
   Tot(8)       31       10     1997    119.4    362.2   1525.4   365.22      0.0    119.4      0.0      0.0      0.0     99.7       45     87.2     84.6       50     0.000     0.000     0.000     0.000       74        0        0        0        0       51       36     3.315       39     42.9    1.421     0.76       14        1     1998  Essexvalley_TomatoGDDCRO_Sand_S2_rainfed.PRM
   Tot(9)       31       10     1998    233.9    352.2   1537.6   367.54      0.0    227.0      6.9     27.6      0.0    119.1       65    146.1    148.1       73     0.000     0.000     0.000     0.000       75        0        0        0        0       38       19     5.769       67     52.1    3.004     1.13       15        1     1999  Essexvalley_TomatoGDDCRO_Sand_S2_rainfed.PRM
  Tot(10)       31       10     1999    206.5    374.1   1556.8   368.97      0.0    199.5      7.0     87.8      0.0    101.1       46     79.9     80.4       45     0.000     0.000     0.000     0.000       79        0        0        0        0       55       43     3.110       34     44.1    1.373     0.76       20        1     2000  Essexvalley_TomatoGDDCRO_Sand_S2_rainfed.PRM
  Tot(11)       31       10     2000    371.0    349.0   1537.4   370.35      0.0    345.9     25.1    131.1      0.0     77.6       40    183.0    180.0       99     0.000     0.000     0.000     0.000       77        0        0        0        0       17        1     8.020       90     57.7    4.631     1.78       17        1     2001  Essexvalley_TomatoGDDCRO_Sand_S2_rainfed.PRM
  Tot(12)       31       10     2001    337.2    341.5   1556.4   372.21      0.0    323.0     14.2     92.8      0.0    131.0       67    144.4    147.4       82     0.000     0.000     0.000     0.000       76        0        0        0        0       39       14     6.064       69     56.7    3.436     1.25       17        1     2002  Essexvalley_TomatoGDDCRO_Sand_S2_rainfed.PRM
  Tot(13)       31       10     2002    122.2    357.9   1532.2   374.54      0.0    122.2      0.0      0.0      0.0     99.4       42     85.6     84.9       56     0.000     0.000     0.000     0.000       74        0        0        0        0       55       31     3.395       39     47.4    1.611     0.87       14        1     2003  Essexvalley_TomatoGDDCRO_Sand_S2_rainfed.PRM
  Tot(14)       31       10     2003    238.7    373.6   1535.2   376.66      0.0    237.0      1.7     16.0      0.0    117.5       65    169.9    170.1       75     0.000     0.000     0.000     0.000       75        0        0        0        0       12       17     6.550       74     52.4    3.432     1.19       15        1     2004  Essexvalley_TomatoGDDCRO_Sand_S2_rainfed.PRM
  Tot(15)       31       10     2004    121.9    396.2   1527.0   378.66      0.0    121.9      0.0      0.0      0.0    104.0       33     81.1     81.0       67     0.000     0.000     0.000     0.000       75        0        0        0        0       57       22     3.037       34     53.1    1.613     0.87       15        1     2005  Essexvalley_TomatoGDDCRO_Sand_S2_rainfed.PRM
  Tot(16)       31       10     2005    245.8    347.6   1541.8   380.85      0.0    241.8      4.0     28.1      0.0    107.4       60    157.6    155.8       79     0.000     0.000     0.000     0.000       76        0        0        0        0       37       15     6.783       75     56.1    3.806     1.44       16        1     2006  Essexvalley_TomatoGDDCRO_Sand_S2_rainfed.PRM
  Tot(17)       31       10     2006    179.3    361.0   1518.4   382.85      0.0    172.5      6.8     48.5      0.0    105.9       53     87.5     89.8       47     0.000     0.000     0.000     0.000       73        0        0        0        0       50       39     3.451       40     40.4    1.393     0.72       13        1     2007  Essexvalley_TomatoGDDCRO_Sand_S2_rainfed.PRM
  Tot(18)       31       10     2007    266.1    355.2   1558.8   384.70      0.0    249.6     16.5    114.7      0.0    111.9       56     91.6     91.7       52     0.000     0.000     0.000     0.000       76        0        0        0        0       53       38     3.671       40     47.1    1.728     0.85       17        1     2008  Essexvalley_TomatoGDDCRO_Sand_S2_rainfed.PRM
  Tot(19)       31       10     2008    209.2    356.8   1556.0   386.51      0.0    200.3      8.9     89.4      0.0    107.2       48     69.6     69.6       49     0.000     0.000     0.000     0.000       75        0        0        0        0       55       45     2.879       32     38.4    1.106     0.64       17        1     2009  Essexvalley_TomatoGDDCRO_Sand_S2_rainfed.PRM
  Tot(20)       31       10     2009    153.9    354.9   1530.1   388.66      0.0    150.4      3.5      1.6      0.0     84.1       37    123.6    122.3       77     0.000     0.000     0.000     0.000       75        0        0        0        0       42       18     5.300       59     54.3    2.877     1.39       15        1     2010  Essexvalley_TomatoGDDCRO_Sand_S2_rainfed.PRM
  Tot(21)       31       10     2010    136.5    361.3   1550.6   390.77      0.0    136.3      0.2     18.2      0.0     90.8       43     94.8     96.1       54     0.000     0.000     0.000     0.000       79        0        0        0        0       53       34     4.139       43     48.5    2.007     1.08       20        1     2011  Essexvalley_TomatoGDDCRO_Sand_S2_rainfed.PRM
  Tot(22)       31       10     2011     64.1    375.7   1533.7   392.75      0.0     64.1      0.0      1.8      0.0     76.2       24     50.9     50.8       60     0.000     0.000     0.000     0.000       75        0        0        0        0       68       36     1.962       22     48.9    0.959     0.75       15        1     2012  Essexvalley_TomatoGDDCRO_Sand_S2_rainfed.PRM
  Tot(23)       31       10     2012     99.3    365.5   1533.0   395.19      0.0     99.2      0.1      6.9      0.0     86.1       38     75.4     75.4       49     0.000     0.000     0.000     0.000       75        0        0        0        0       54       42     3.158       35     42.4    1.339     0.83       15        1     2013  Essexvalley_TomatoGDDCRO_Sand_S2_rainfed.PRM
  Tot(24)       31       10     2013    116.2    357.5   1517.0   397.58      0.0    114.4      1.8     15.6      0.0     94.3       39     72.8     72.7       49     0.000     0.000     0.000     0.000       73        0        0        0        0       57       36     2.989       34     44.5    1.329     0.80       13        1     2014  Essexvalley_TomatoGDDCRO_Sand_S2_rainfed.PRM
  Tot(25)       31       10     2014    178.0    346.7   1524.9   399.74      0.0    176.2      1.8      4.4      0.0     87.9       50    150.9    150.7       75     0.000     0.000     0.000     0.000       74        0        0        0        0        9       16     6.597       73     52.3    3.451     1.45       14        1     2015  Essexvalley_TomatoGDDCRO_Sand_S2_rainfed.PRM
  Tot(26)       31       10     2015    169.6    336.4   1521.2   402.52      0.0    168.7      0.9     16.1      0.0    128.9       69     92.4     92.7       54     0.000     0.000     0.000     0.000       73        0        0        0        0       49       35     4.128       46     43.6    1.798     0.81       13        1     2016  Essexvalley_TomatoGDDCRO_Sand_S2_rainfed.PRM
  Tot(27)       31       10     2016    154.4    346.6   1528.1   405.21      0.0    153.1      1.3     27.2      0.0    101.2       56     94.1     94.2       53     0.000     0.000     0.000     0.000       74        0        0        0        0       43       36     4.228       46     43.1    1.821     0.93       14        1     2017  Essexvalley_TomatoGDDCRO_Sand_S2_rainfed.PRM
  Tot(28)       31       10     2017    365.7    304.8   1537.0   407.21      0.0    352.8     12.9     61.8      0.0    110.4       78    170.8    167.8       90     0.000     0.000     0.000     0.000       75        0        0        0        0        6        6     8.491       91     56.2    4.775     1.70       15        1     2018  Essexvalley_TomatoGDDCRO_Sand_S2_rainfed.PRM
  Tot(29)       31       10     2018     40.5    356.1   1527.7   409.21      0.0     40.5      0.0      0.0      0.0     49.7       18     57.0     59.9       55     0.000     0.000     0.000     0.000       74        0        0        0        0       63       34     2.436       26     48.5    1.182     1.11       14        1     2019  Essexvalley_TomatoGDDCRO_Sand_S2_rainfed.PRM
