AquaCrop 6.0 (March 2017) - Output created on (date) : 3/5/2021   at (time) : 3:56:47 PM

    RunNr     Day1   Month1    Year1     Rain      ETo       GD     CO2      Irri   Infilt   Runoff    Drain   Upflow        E     E/Ex       Tr      TrW   Tr/Trx    SaltIn   SaltOut    SaltUp  SaltProf     Cycle   SaltStr  FertStr  WeedStr  TempStr   ExpStr   StoStr  BioMass  Brelative   HI     Yield     WPet     DayN   MonthN    YearN
                                           mm       mm    °C.day    ppm        mm       mm       mm       mm       mm       mm        %       mm       mm        %    ton/ha    ton/ha    ton/ha    ton/ha      days       %        %        %        %        %        %    ton/ha        %       %    ton/ha    kg/m3
   Tot(1)       31        5     1990    184.7    581.8   1666.0   354.39      0.0    183.2      1.5     17.2      0.0    157.0       47    186.1    184.2       66     0.000     0.000     0.000     0.000       89        0        0        0        0       43       25     4.306       61     26.5    1.141     0.33        2        9     1990  Essexvalley_GroundnutGDDCRO_SandyLoam_S1_rainfed.PRM
   Tot(2)       31        5     1991    111.3    574.3   1677.8   355.61      0.0    111.3      0.0      0.0      0.0    117.8       35    166.4    167.8       64     0.000     0.000     0.000     0.000       90        0        0        0        0       44       26     4.034       56     26.5    1.069     0.38        3        9     1991  Essexvalley_GroundnutGDDCRO_SandyLoam_S1_rainfed.PRM
   Tot(3)       31        5     1992    127.4    583.3   1671.7   356.45      0.0    127.4      0.0      0.0      0.0    136.3       40    168.8    169.2       62     0.000     0.000     0.000     0.000       89        0        0        0        0       45       29     3.944       55     26.5    1.045     0.34        2        9     1992  Essexvalley_GroundnutGDDCRO_SandyLoam_S1_rainfed.PRM
   Tot(4)       31        5     1993    175.4    579.5   1697.2   356.10      0.0    174.5      0.9     16.7      0.0    165.3       48    166.3    166.3       66     0.000     0.000     0.000     0.000       91        0        0        0        0       44       29     3.912       53     26.5    1.037     0.31        4        9     1993  Essexvalley_GroundnutGDDCRO_SandyLoam_S1_rainfed.PRM
   Tot(5)       31        5     1994    112.2    629.7   1674.6   358.83      0.0    112.2      0.0      0.0      0.0    119.7       31    167.3    166.9       59     0.000     0.000     0.000     0.000       89        0        0        0        0       48       30     3.631       50     26.5    0.962     0.34        2        9     1994  Essexvalley_GroundnutGDDCRO_SandyLoam_S1_rainfed.PRM
   Tot(6)       31        5     1995    252.9    562.4   1663.2   360.82      0.0    252.8      0.1      5.1      0.0    183.7       58    238.0    237.4       83     0.000     0.000     0.000     0.000       88        0        0        0        0       19       11     5.899       83     26.5    1.563     0.37        1        9     1995  Essexvalley_GroundnutGDDCRO_SandyLoam_S1_rainfed.PRM
   Tot(7)       31        5     1996    178.6    580.8   1668.7   362.61      0.0    178.6      0.0      0.0      0.0    145.6       44    210.4    210.9       73     0.000     0.000     0.000     0.000       89        0        0        0        0       35       18     5.210       72     26.5    1.381     0.39        2        9     1996  Essexvalley_GroundnutGDDCRO_SandyLoam_S1_rainfed.PRM
   Tot(8)       31        5     1997    230.4    551.6   1699.7   363.73      0.0    226.1      4.3     42.8      0.0    160.5       52    196.8    196.7       71     0.000     0.000     0.000     0.000       91        0        0        0        0       41       20     4.979       67     26.5    1.319     0.37        4        9     1997  Essexvalley_GroundnutGDDCRO_SandyLoam_S1_rainfed.PRM
   Tot(9)       31        5     1998    250.1    560.8   1644.9   366.70      0.0    249.6      0.5      2.4      0.0    158.3       50    245.7    241.6       87     0.000     0.000     0.000     0.000       87        0        0        0        0        0        9     6.125       87     26.5    1.623     0.40       30        8     1998  Essexvalley_GroundnutGDDCRO_SandyLoam_S1_rainfed.PRM
  Tot(10)       31        5     1999    307.8    562.1   1683.4   368.38      0.0    306.7      1.1      8.7      0.0    207.2       67    260.4    263.6       89     0.000     0.000     0.000     0.000       90        0        0        0        0        1        7     6.660       89     26.5    1.765     0.38        3        9     1999  Essexvalley_GroundnutGDDCRO_SandyLoam_S1_rainfed.PRM
  Tot(11)       31        5     2000    294.7    578.0   1694.8   369.55      0.0    292.3      2.4     16.3      0.0    157.3       50    263.3    261.0       88     0.000     0.000     0.000     0.000       91        0        0        0        0       11        8     6.674       88     26.5    1.769     0.42        4        9     2000  Essexvalley_GroundnutGDDCRO_SandyLoam_S1_rainfed.PRM
  Tot(12)       31        5     2001    132.9    583.9   1652.8   371.14      0.0    132.9      0.0      0.0      0.0    108.9       32    198.8    201.9       70     0.000     0.000     0.000     0.000       88        0        0        0        0       38       20     4.940       68     26.5    1.309     0.43        1        9     2001  Essexvalley_GroundnutGDDCRO_SandyLoam_S1_rainfed.PRM
  Tot(13)       31        5     2002    247.7    553.0   1690.9   373.28      0.0    240.3      7.4     68.1      0.0    160.0       52    186.1    186.2       68     0.000     0.000     0.000     0.000       91        0        0        0        0       41       22     4.840       64     26.5    1.283     0.37        4        9     2002  Essexvalley_GroundnutGDDCRO_SandyLoam_S1_rainfed.PRM
  Tot(14)       31        5     2003    300.4    565.3   1670.7   375.80      0.0    299.7      0.7     11.5      0.0    201.2       64    247.6    243.5       85     0.000     0.000     0.000     0.000       89        0        0        0        0        9        9     6.416       86     26.5    1.700     0.38        2        9     2003  Essexvalley_GroundnutGDDCRO_SandyLoam_S1_rainfed.PRM
  Tot(15)       31        5     2004    170.1    586.3   1659.0   377.52      0.0    170.1      0.0      0.0      0.0    128.7       38    217.0    221.0       74     0.000     0.000     0.000     0.000       88        0        0        0        0       39       17     5.399       73     26.5    1.431     0.41        1        9     2004  Essexvalley_GroundnutGDDCRO_SandyLoam_S1_rainfed.PRM
  Tot(16)       31        5     2005    605.5    501.0   1687.5   379.80      0.0    551.7     53.8    224.1      0.0    227.5       84    260.0    258.1       98     0.000     0.000     0.000     0.000       90        0        0        0        0        0        1     7.452       98     26.5    1.975     0.41        2        9     2005  Essexvalley_GroundnutGDDCRO_SandyLoam_S1_rainfed.PRM
  Tot(17)       31        5     2006    347.9    545.0   1677.5   381.90      0.0    339.3      8.6     80.4      0.0    176.3       60    252.3    251.8       88     0.000     0.000     0.000     0.000       89        0        0        0        0        7        9     6.626       87     26.5    1.756     0.41        2        9     2006  Essexvalley_GroundnutGDDCRO_SandyLoam_S1_rainfed.PRM
  Tot(18)       31        5     2007    256.4    551.0   1676.2   383.79      0.0    255.3      1.1      1.0      0.0    148.7       48    257.8    257.1       92     0.000     0.000     0.000     0.000       90        0        0        0        0       26        5     6.999       92     26.5    1.855     0.46        2        9     2007  Essexvalley_GroundnutGDDCRO_SandyLoam_S1_rainfed.PRM
  Tot(19)       31        5     2008    423.7    540.8   1670.5   385.60      0.0    394.1     29.6     11.9      0.0    157.8       53    278.6    279.4      100     0.000     0.000     0.000     0.000       89        0        0        0        0        0        0     7.636      100     26.5    2.024     0.46        2        9     2008  Essexvalley_GroundnutGDDCRO_SandyLoam_S1_rainfed.PRM
  Tot(20)       31        5     2009    234.8    552.0   1686.5   387.43      0.0    234.4      0.4     10.0      0.0    182.6       61    215.8    215.6       74     0.000     0.000     0.000     0.000       90        0        0        0        0       34       17     5.657       73     26.5    1.499     0.38        3        9     2009  Essexvalley_GroundnutGDDCRO_SandyLoam_S1_rainfed.PRM
  Tot(21)       31        5     2010    506.9    500.0   1670.7   389.90      0.0    497.6      9.3     95.5      0.0    199.7       72    256.4    255.1      100     0.000     0.000     0.000     0.000       89        0        0        0        0        0        0     7.667      100     25.0    1.917     0.42        1        9     2010  Essexvalley_GroundnutGDDCRO_SandyLoam_S1_rainfed.PRM
  Tot(22)       31        5     2011    523.5    514.8   1689.9   391.65      0.0    503.2     20.3    127.7      0.0    197.9       72    273.9    274.2      100     0.000     0.000     0.000     0.000       90        0        0        0        0        0        0     7.844      100     25.4    1.990     0.42        3        9     2011  Essexvalley_GroundnutGDDCRO_SandyLoam_S1_rainfed.PRM
  Tot(23)       31        5     2012    345.6    550.4   1672.9   393.85      0.0    339.7      5.9     28.2      0.0    173.6       57    277.2    276.6       99     0.000     0.000     0.000     0.000       89        0        0        0        0       15        1     7.691       99     26.5    2.038     0.45        2        9     2012  Essexvalley_GroundnutGDDCRO_SandyLoam_S1_rainfed.PRM
  Tot(24)       31        5     2013    283.8    532.9   1669.5   396.52      0.0    283.7      0.1      3.2      0.0    177.3       61    259.2    259.8       93     0.000     0.000     0.000     0.000       90        0        0        0        0        5        4     7.332       94     26.5    1.943     0.45        2        9     2013  Essexvalley_GroundnutGDDCRO_SandyLoam_S1_rainfed.PRM
  Tot(25)       31        5     2014    215.7    548.1   1670.9   398.65      0.0    214.3      1.4      0.0      0.0    146.0       47    210.5    210.4       77     0.000     0.000     0.000     0.000       89        0        0        0        0       39       15     5.839       74     26.5    1.547     0.43        2        9     2014  Essexvalley_GroundnutGDDCRO_SandyLoam_S1_rainfed.PRM
  Tot(26)       31        5     2015    200.0    547.2   1670.8   400.83      0.0    195.0      5.0     35.7      0.0    156.0       51    178.9    182.7       67     0.000     0.000     0.000     0.000       89        0        0        0        0       41       23     4.926       63     26.5    1.305     0.39        2        9     2015  Essexvalley_GroundnutGDDCRO_SandyLoam_S1_rainfed.PRM
  Tot(27)       31        5     2016    302.8    528.6   1652.5   404.21      0.0    298.5      4.3     30.7      0.0    172.3       59    242.8    239.3       90     0.000     0.000     0.000     0.000       88        0        0        0        0       14        6     6.948       90     26.5    1.841     0.44       31        8     2016  Essexvalley_GroundnutGDDCRO_SandyLoam_S1_rainfed.PRM
  Tot(28)       31        5     2017    297.3    525.7   1679.6   406.21      0.0    283.2     14.1     95.5      0.0    155.4       54    207.0    210.2       76     0.000     0.000     0.000     0.000       89        0        0        0        0       34       16     6.014       75     26.5    1.594     0.44        2        9     2017  Essexvalley_GroundnutGDDCRO_SandyLoam_S1_rainfed.PRM
  Tot(29)       31        5     2018    146.1    548.2   1684.2   408.21      0.0    146.1      0.0      0.0      0.0    150.6       49    172.1    169.8       64     0.000     0.000     0.000     0.000       90        0        0        0        0       44       25     4.834       60     26.5    1.281     0.40        3        9     2018  Essexvalley_GroundnutGDDCRO_SandyLoam_S1_rainfed.PRM
