AquaCrop 6.0 (March 2017) - Output created on (date) : 3/5/2021   at (time) : 4:05:18 PM

    RunNr     Day1   Month1    Year1     Rain      ETo       GD     CO2      Irri   Infilt   Runoff    Drain   Upflow        E     E/Ex       Tr      TrW   Tr/Trx    SaltIn   SaltOut    SaltUp  SaltProf     Cycle   SaltStr  FertStr  WeedStr  TempStr   ExpStr   StoStr  BioMass  Brelative   HI     Yield     WPet     DayN   MonthN    YearN
                                           mm       mm    °C.day    ppm        mm       mm       mm       mm       mm       mm        %       mm       mm        %    ton/ha    ton/ha    ton/ha    ton/ha      days       %        %        %        %        %        %    ton/ha        %       %    ton/ha    kg/m3
   Tot(1)        1       10     1990    343.3    477.9   1301.2   355.00    199.7    339.5      3.8     83.5      0.0    106.5       73    365.6    365.6      100     0.000     0.000     0.000     0.000       99        0        0        0        0        0        0    16.002      100     53.8    8.613     1.83       13        1     1991  Essexvalley_SweetPotatoGDDCRO_Sand_S2_riegoIRR.PRM
   Tot(2)        1       10     1991    186.5    510.5   1301.4   356.03    355.2    181.8      4.7     38.1      0.0    121.1       79    394.6    394.6      100     0.000     0.000     0.000     0.000      101        0        0        0        0        0        0    16.230      100     53.8    8.735     1.70       15        1     1992  Essexvalley_SweetPotatoGDDCRO_Sand_S2_riegoIRR.PRM
   Tot(3)        1       10     1992     80.8    518.5   1300.6   356.27    410.9     80.8      0.0      0.0      0.0    107.4       69    401.1    401.1      100     0.000     0.000     0.000     0.000       96        0        0        0        0        0        0    15.431      100     53.8    8.303     1.64       10        1     1993  Essexvalley_SweetPotatoGDDCRO_Sand_S2_riegoIRR.PRM
   Tot(4)        1       10     1993    197.7    508.3   1303.0   357.47    330.0    194.9      2.8     28.3      0.0    120.7       79    392.3    392.3      100     0.000     0.000     0.000     0.000       99        0        0        0        0        0        0    16.012      100     53.8    8.611     1.69       13        1     1994  Essexvalley_SweetPotatoGDDCRO_Sand_S2_riegoIRR.PRM
   Tot(5)        1       10     1994    216.2    508.8   1295.3   359.82    336.0    207.9      8.3     53.2      0.0    116.4       74    389.7    389.7      100     0.000     0.000     0.000     0.000       98        0        0        0        0        0        0    15.916      100     53.6    8.538     1.70       12        1     1995  Essexvalley_SweetPotatoGDDCRO_Sand_S2_riegoIRR.PRM
   Tot(6)        1       10     1995    250.8    492.8   1300.4   361.72    332.9    245.8      5.0     81.6      0.0    128.8       89    383.3    383.3      100     0.000     0.000     0.000     0.000       96        0        0        0        0        0        0    15.571      100     53.8    8.373     1.64       11        1     1996  Essexvalley_SweetPotatoGDDCRO_Sand_S2_riegoIRR.PRM
   Tot(7)        1       10     1996    268.9    514.0   1299.9   363.17    337.3    260.2      8.7     88.1      0.0    119.1       83    407.1    407.1      100     0.000     0.000     0.000     0.000      102        0        0        0        0        0        0    16.757      100     53.7    8.995     1.71       16        1     1997  Essexvalley_SweetPotatoGDDCRO_Sand_S2_riegoIRR.PRM
   Tot(8)        1       10     1997    267.6    493.2   1296.7   365.22    299.4    259.9      7.7     68.5      0.0    128.2       85    379.4    379.4      100     0.000     0.000     0.000     0.000       96        0        0        0        0        0        0    15.663      100     53.6    8.401     1.66       11        1     1998  Essexvalley_SweetPotatoGDDCRO_Sand_S2_riegoIRR.PRM
   Tot(9)        1       10     1998    423.0    474.5   1300.0   367.54    199.8    396.0     27.0    130.8      0.0    109.9       78    367.9    367.9      100     0.000     0.000     0.000     0.000       98        0        0        0        0        0        0    16.314      100     53.8    8.780     1.85       12        1     1999  Essexvalley_SweetPotatoGDDCRO_Sand_S2_riegoIRR.PRM
  Tot(10)        1       10     1999    511.5    512.1   1301.2   368.97    289.5    476.0     35.5    248.4      0.0    123.8       91    410.1    410.1      100     0.000     0.000     0.000     0.000      108        0        0        0        0        0        0    18.145      100     53.9    9.772     1.84       22        1     2000  Essexvalley_SweetPotatoGDDCRO_Sand_S2_riegoIRR.PRM
  Tot(11)        1       10     2000    461.5    495.6   1298.6   370.35    236.5    431.9     29.6    188.8      0.0    120.0       77    376.0    376.0      100     0.000     0.000     0.000     0.000      101        0        0        0        0        0        0    16.929      100     53.8    9.109     1.84       16        1     2001  Essexvalley_SweetPotatoGDDCRO_Sand_S2_riegoIRR.PRM
  Tot(12)        1       10     2001    507.6    474.8   1300.2   372.21    151.6    487.2     20.4    164.9      0.0    122.1       83    362.9    362.9      100     0.000     0.000     0.000     0.000      100        0        0        0        0        0        0    16.933      100     53.8    9.114     1.89       14        1     2002  Essexvalley_SweetPotatoGDDCRO_Sand_S2_riegoIRR.PRM
  Tot(13)        1       10     2002    231.9    483.9   1294.9   374.54    302.4    224.9      7.0     49.4      0.0    108.3       76    377.3    377.3      100     0.000     0.000     0.000     0.000       96        0        0        0        0        0        0    16.099      100     53.8    8.662     1.79       10        1     2003  Essexvalley_SweetPotatoGDDCRO_Sand_S2_riegoIRR.PRM
  Tot(14)        1       10     2003    328.1    494.5   1300.3   376.66    216.5    320.8      7.3     42.8      0.0    122.8       86    387.7    387.7      100     0.000     0.000     0.000     0.000       96        0        0        0        0        0        0    16.284      100     53.8    8.757     1.72       10        1     2004  Essexvalley_SweetPotatoGDDCRO_Sand_S2_riegoIRR.PRM
  Tot(15)        1       10     2004    153.6    540.4   1303.2   378.66    370.5    152.6      1.0      3.1      0.0    111.3       72    424.5    424.5      100     0.000     0.000     0.000     0.000       97        0        0        0        0        0        0    16.673      100     53.8    8.974     1.68       11        1     2005  Essexvalley_SweetPotatoGDDCRO_Sand_S2_riegoIRR.PRM
  Tot(16)        1       10     2005    746.8    451.8   1301.8   380.85    154.2    680.2     66.6    369.6      0.0    115.8       96    362.4    362.4      100     0.000     0.000     0.000     0.000      100        0        0        0        0        0        0    17.014      100     55.0    9.358     1.96       15        1     2006  Essexvalley_SweetPotatoGDDCRO_Sand_S2_riegoIRR.PRM
  Tot(17)        1       10     2006    263.9    483.4   1303.0   382.85    274.3    252.5     11.4     60.3      0.0    115.1       77    368.2    368.2      100     0.000     0.000     0.000     0.000       93        0        0        0        0        0        0    16.063      100     53.8    8.647     1.80        7        1     2007  Essexvalley_SweetPotatoGDDCRO_Sand_S2_riegoIRR.PRM
  Tot(18)        1       10     2007    574.1    468.2   1302.7   384.70    222.7    531.9     42.2    279.2      0.0    117.2       94    375.1    375.1      100     0.000     0.000     0.000     0.000      101        0        0        0        0        0        0    17.363      100     55.0    9.550     1.95       16        1     2008  Essexvalley_SweetPotatoGDDCRO_Sand_S2_riegoIRR.PRM
  Tot(19)        1       10     2008    325.1    486.5   1305.4   386.51    279.5    313.8     11.3    107.1      0.0    122.6       89    381.2    381.2      100     0.000     0.000     0.000     0.000      101        0        0        0        0        0        0    17.607      100     53.9    9.483     1.89       15        1     2009  Essexvalley_SweetPotatoGDDCRO_Sand_S2_riegoIRR.PRM
  Tot(20)        1       10     2009    248.9    480.2   1301.9   388.66    281.6    240.8      8.1     48.3      0.0    120.7       83    369.0    369.0      100     0.000     0.000     0.000     0.000       95        0        0        0        0        0        0    16.580      100     53.8    8.921     1.83        9        1     2010  Essexvalley_SweetPotatoGDDCRO_Sand_S2_riegoIRR.PRM
  Tot(21)        1       10     2010    327.1    498.5   1299.7   390.77    279.6    316.5     10.6    101.9      0.0    116.6       85    394.5    394.5      100     0.000     0.000     0.000     0.000      106        0        0        0        0        0        0    18.768      100     53.9   10.108     1.98       21        1     2011  Essexvalley_SweetPotatoGDDCRO_Sand_S2_riegoIRR.PRM
  Tot(22)        1       10     2011    244.9    496.3   1294.8   392.75    305.5    241.8      3.1     43.1      0.0    129.7       93    391.4    391.4      100     0.000     0.000     0.000     0.000       97        0        0        0        0        0        0    16.963      100     53.7    9.107     1.75       11        1     2012  Essexvalley_SweetPotatoGDDCRO_Sand_S2_riegoIRR.PRM
  Tot(23)        1       10     2012    261.2    493.6   1296.6   395.19    314.1    243.6     17.6     71.7      0.0    118.4       83    383.5    383.5      100     0.000     0.000     0.000     0.000       98        0        0        0        0        0        0    17.281      100     53.8    9.301     1.86       12        1     2013  Essexvalley_SweetPotatoGDDCRO_Sand_S2_riegoIRR.PRM
  Tot(24)        1       10     2013    186.1    474.9   1300.2   397.58    291.3    183.6      2.5     13.2      0.0    110.9       79    367.4    367.4      100     0.000     0.000     0.000     0.000       94        0        0        0        0        0        0    16.604      100     53.8    8.938     1.88        8        1     2014  Essexvalley_SweetPotatoGDDCRO_Sand_S2_riegoIRR.PRM
  Tot(25)        1       10     2014    264.0    479.6   1298.5   399.74    237.4    259.7      4.3     42.8      0.0    108.3       73    362.7    362.7      100     0.000     0.000     0.000     0.000       96        0        0        0        0        0        0    17.076      100     53.8    9.182     1.96       10        1     2015  Essexvalley_SweetPotatoGDDCRO_Sand_S2_riegoIRR.PRM
  Tot(26)        1       10     2015    253.0    457.8   1296.7   402.52    213.5    251.8      1.2     14.0      0.0    117.6       85    350.7    350.7      100     0.000     0.000     0.000     0.000       93        0        0        0        0        0        0    16.665      100     53.8    8.971     1.92        7        1     2016  Essexvalley_SweetPotatoGDDCRO_Sand_S2_riegoIRR.PRM
  Tot(27)        1       10     2016    312.8    451.0   1299.7   405.21    205.5    305.6      7.2     61.5      0.0    118.6       90    347.9    347.9      100     0.000     0.000     0.000     0.000       95        0        0        0        0        0        0    17.088      100     53.8    9.194     1.98        9        1     2017  Essexvalley_SweetPotatoGDDCRO_Sand_S2_riegoIRR.PRM
  Tot(28)        1       10     2017    562.0    423.3   1294.3   407.21    120.4    534.4     27.6    211.1      0.0    117.4       91    324.6    320.7      100     0.000     0.000     0.000     0.000       98        0        0        0        0        0        0    17.802      100     53.8    9.581     2.17       11        1     2018  Essexvalley_SweetPotatoGDDCRO_Sand_S2_riegoIRR.PRM
  Tot(29)        1       10     2018    186.4    477.5   1302.6   409.21    358.4    178.9      7.5     63.8      0.0    122.6       87    368.0    371.9      100     0.000     0.000     0.000     0.000       96        0        0        0        0        0        0    17.200      100     53.8    9.254     1.89       11        1     2019  Essexvalley_SweetPotatoGDDCRO_Sand_S2_riegoIRR.PRM
