AquaCrop 6.0 (March 2017) - Output created on (date) : 3/5/2021   at (time) : 4:10:16 PM

    RunNr     Day1   Month1    Year1     Rain      ETo       GD     CO2      Irri   Infilt   Runoff    Drain   Upflow        E     E/Ex       Tr      TrW   Tr/Trx    SaltIn   SaltOut    SaltUp  SaltProf     Cycle   SaltStr  FertStr  WeedStr  TempStr   ExpStr   StoStr  BioMass  Brelative   HI     Yield     WPet     DayN   MonthN    YearN
                                           mm       mm    °C.day    ppm        mm       mm       mm       mm       mm       mm        %       mm       mm        %    ton/ha    ton/ha    ton/ha    ton/ha      days       %        %        %        %        %        %    ton/ha        %       %    ton/ha    kg/m3
   Tot(1)       31        5     1990    151.9    445.9   1495.8   354.39      0.0    150.5      1.4     14.9      0.0    125.6       47    121.4    121.0       57     0.000     0.000     0.000     0.000       71        0        0        0        0       53       30     3.445       45     45.0    1.552     0.63       11        8     1990  Essexvalley_TomatoGDDCRO_Loam_S1_rainfed.PRM
   Tot(2)       31        5     1991     68.6    442.2   1512.3   355.61      0.0     68.6      0.0      0.0      0.0     83.2       28     98.5     98.8       57     0.000     0.000     0.000     0.000       72        0        0        0        0       58       32     2.917       37     46.5    1.356     0.75       12        8     1991  Essexvalley_TomatoGDDCRO_Loam_S1_rainfed.PRM
   Tot(3)       31        5     1992    114.9    447.5   1520.8   356.45      0.0    114.9      0.0      0.0      0.0    121.2       43    107.0    107.0       55     0.000     0.000     0.000     0.000       72        0        0        0        0       56       34     3.075       39     45.2    1.392     0.61       12        8     1992  Essexvalley_TomatoGDDCRO_Loam_S1_rainfed.PRM
   Tot(4)       31        5     1993    141.7    438.0   1514.6   356.10      0.0    140.8      0.9     16.7      0.0    137.4       46     97.8     97.8       57     0.000     0.000     0.000     0.000       72        0        0        0        0       60       33     2.826       36     47.1    1.330     0.57       12        8     1993  Essexvalley_TomatoGDDCRO_Loam_S1_rainfed.PRM
   Tot(5)       31        5     1994     69.3    491.3   1503.8   358.83      0.0     69.3      0.0      0.0      0.0     93.0       22     79.9     79.7       66     0.000     0.000     0.000     0.000       71        0        0        0        0       66       27     2.050       26     48.6    0.996     0.58       11        8     1994  Essexvalley_TomatoGDDCRO_Loam_S1_rainfed.PRM
   Tot(6)       31        5     1995    202.8    433.2   1489.5   360.82      0.0    202.7      0.1      5.1      0.0    173.1       63    127.2    124.3       65     0.000     0.000     0.000     0.000       70        0        0        0        0       57       25     3.683       48     49.3    1.816     0.60       10        8     1995  Essexvalley_TomatoGDDCRO_Loam_S1_rainfed.PRM
   Tot(7)       31        5     1996    138.2    455.0   1501.7   362.61      0.0    138.2      0.0      0.0      0.0    133.5       42    112.5    115.2       62     0.000     0.000     0.000     0.000       71        0        0        0        0       58       27     3.245       41     47.6    1.543     0.63       11        8     1996  Essexvalley_TomatoGDDCRO_Loam_S1_rainfed.PRM
   Tot(8)       31        5     1997    185.1    423.2   1515.5   363.73      0.0    180.8      4.3     42.8      0.0    141.2       54    106.8    106.8       54     0.000     0.000     0.000     0.000       72        0        0        0        0       57       34     3.255       40     46.5    1.513     0.61       12        8     1997  Essexvalley_TomatoGDDCRO_Loam_S1_rainfed.PRM
   Tot(9)       31        5     1998    179.7    439.9   1480.8   366.70      0.0    179.2      0.5      0.0      0.0    118.4       48    169.7    169.4       73     0.000     0.000     0.000     0.000       69        0        0        0        0       40       17     5.001       64     49.6    2.479     0.86        9        8     1998  Essexvalley_TomatoGDDCRO_Loam_S1_rainfed.PRM
  Tot(10)       31        5     1999    225.2    437.8   1514.1   368.38      0.0    224.1      1.1      8.7      0.0    148.8       67    176.4    176.5       69     0.000     0.000     0.000     0.000       72        0        0        0        0       34       21     5.468       67     49.9    2.729     0.84       12        8     1999  Essexvalley_TomatoGDDCRO_Loam_S1_rainfed.PRM
  Tot(11)       31        5     2000    200.4    440.3   1510.2   369.55      0.0    199.2      1.2     16.3      0.0    140.6       52    147.6    147.5       70     0.000     0.000     0.000     0.000       72        0        0        0        0       54       21     4.432       54     50.4    2.233     0.77       12        8     2000  Essexvalley_TomatoGDDCRO_Loam_S1_rainfed.PRM
  Tot(12)       31        5     2001     87.3    454.7   1496.5   371.14      0.0     87.3      0.0      0.0      0.0    105.2       28     83.3     83.6       67     0.000     0.000     0.000     0.000       71        0        0        0        0       65       25     2.405       30     49.3    1.186     0.63       11        8     2001  Essexvalley_TomatoGDDCRO_Loam_S1_rainfed.PRM
  Tot(13)       31        5     2002    190.0    425.3   1526.1   373.28      0.0    182.7      7.3     68.1      0.0    128.1       45     97.9     98.3       57     0.000     0.000     0.000     0.000       73        0        0        0        0       59       35     3.005       36     48.1    1.445     0.64       13        8     2002  Essexvalley_TomatoGDDCRO_Loam_S1_rainfed.PRM
  Tot(14)       31        5     2003    218.1    443.1   1518.9   375.80      0.0    217.4      0.7      9.9      0.0    157.3       65    157.7    156.9       65     0.000     0.000     0.000     0.000       72        0        0        0        0       45       24     4.902       59     49.4    2.421     0.77       12        8     2003  Essexvalley_TomatoGDDCRO_Loam_S1_rainfed.PRM
  Tot(15)       31        5     2004    134.7    455.4   1504.2   377.52      0.0    134.7      0.0      0.0      0.0    127.0       35     88.5     88.0       67     0.000     0.000     0.000     0.000       71        0        0        0        0       64       24     2.603       32     49.3    1.284     0.60       11        8     2004  Essexvalley_TomatoGDDCRO_Loam_S1_rainfed.PRM
  Tot(16)       31        5     2005    535.3    385.5   1513.9   379.80      0.0    484.8     50.5    216.4      0.0    153.9       86    213.5    213.2       88     0.000     0.000     0.000     0.000       71        0        0        0        0        0        8     7.386       89     55.8    4.122     1.12       11        8     2005  Essexvalley_TomatoGDDCRO_Loam_S1_rainfed.PRM
  Tot(17)       31        5     2006    291.9    419.8   1505.0   381.90      0.0    283.3      8.6     80.4      0.0    164.5       64    141.0    141.6       70     0.000     0.000     0.000     0.000       71        0        0        0        0       51       22     4.419       53     48.9    2.160     0.71       11        8     2006  Essexvalley_TomatoGDDCRO_Loam_S1_rainfed.PRM
  Tot(18)       31        5     2007    170.1    434.3   1506.3   383.79      0.0    169.3      0.8      0.3      0.0    135.5       47    106.1    106.2       59     0.000     0.000     0.000     0.000       71        0        0        0        0       59       31     3.234       39     46.5    1.505     0.62       11        8     2007  Essexvalley_TomatoGDDCRO_Loam_S1_rainfed.PRM
  Tot(19)       31        5     2008    211.8    425.0   1498.6   385.60      0.0    209.8      2.0     11.9      0.0    137.7       55    159.2    157.8       74     0.000     0.000     0.000     0.000       71        0        0        0        0       48       18     5.041       61     50.4    2.543     0.86       11        8     2008  Essexvalley_TomatoGDDCRO_Loam_S1_rainfed.PRM
  Tot(20)       31        5     2009    168.3    422.7   1518.0   387.43      0.0    167.9      0.4      9.6      0.0    139.2       64    134.7    136.9       58     0.000     0.000     0.000     0.000       72        0        0        0        0       46       32     4.353       51     45.4    1.978     0.72       12        8     2009  Essexvalley_TomatoGDDCRO_Loam_S1_rainfed.PRM
  Tot(21)       31        5     2010    403.8    386.7   1515.1   389.90      0.0    395.0      8.8     85.1      0.0    127.1       64    224.3    219.6      100     0.000     0.000     0.000     0.000       71        0        0        0        0        3        0     8.277       98     55.7    4.611     1.31       11        8     2010  Essexvalley_TomatoGDDCRO_Loam_S1_rainfed.PRM
  Tot(22)       31        5     2011    422.0    393.6   1520.3   391.65      0.0    401.9     20.1    123.5      0.0    137.7       75    228.1    230.3       93     0.000     0.000     0.000     0.000       72        0        0        0        0       13        4     7.887       92     54.9    4.327     1.18       12        8     2011  Essexvalley_TomatoGDDCRO_Loam_S1_rainfed.PRM
  Tot(23)       31        5     2012    273.7    424.8   1502.3   393.85      0.0    266.1      7.6     25.8      0.0    139.3       58    152.4    151.5       70     0.000     0.000     0.000     0.000       71        0        0        0        0       50       20     5.075       60     48.9    2.480     0.85       11        8     2012  Essexvalley_TomatoGDDCRO_Loam_S1_rainfed.PRM
  Tot(24)       31        5     2013    176.7    412.7   1499.6   396.52      0.0    176.6      0.1      3.2      0.0    125.6       60    157.9    160.3       67     0.000     0.000     0.000     0.000       71        0        0        0        0       38       22     5.401       63     47.2    2.547     0.90       11        8     2013  Essexvalley_TomatoGDDCRO_Loam_S1_rainfed.PRM
  Tot(25)       31        5     2014    115.4    425.6   1497.5   398.65      0.0    115.4      0.0      0.0      0.0    122.2       45    102.8    103.7       56     0.000     0.000     0.000     0.000       71        0        0        0        0       56       33     3.383       40     44.8    1.514     0.67       11        8     2014  Essexvalley_TomatoGDDCRO_Loam_S1_rainfed.PRM
  Tot(26)       31        5     2015    161.2    415.8   1496.5   400.83      0.0    156.2      5.0     35.6      0.0    133.0       49     99.3     99.5       57     0.000     0.000     0.000     0.000       71        0        0        0        0       58       33     3.372       39     45.4    1.529     0.66       11        8     2015  Essexvalley_TomatoGDDCRO_Loam_S1_rainfed.PRM
  Tot(27)       31        5     2016    224.1    413.5   1493.5   404.21      0.0    219.8      4.3     30.7      0.0    152.1       64    134.0    132.9       64     0.000     0.000     0.000     0.000       70        0        0        0        0       50       26     4.439       52     49.0    2.176     0.76       10        8     2016  Essexvalley_TomatoGDDCRO_Loam_S1_rainfed.PRM
  Tot(28)       31        5     2017    253.8    404.0   1505.8   406.21      0.0    240.4     13.4     94.3      0.0    120.8       55    135.1    135.7       64     0.000     0.000     0.000     0.000       71        0        0        0        0       47       25     4.831       56     48.2    2.330     0.91       11        8     2017  Essexvalley_TomatoGDDCRO_Loam_S1_rainfed.PRM
  Tot(29)       31        5     2018    107.5    415.0   1514.2   408.21      0.0    107.5      0.0      0.0      0.0    120.8       48    100.7    101.4       55     0.000     0.000     0.000     0.000       72        0        0        0        0       55       35     3.550       40     44.9    1.595     0.72       12        8     2018  Essexvalley_TomatoGDDCRO_Loam_S1_rainfed.PRM
